[TITLE]


[JUNCTIONS]
;ID              	Elev        	Demand      	Pattern         
 node_0066       	14.100001   	1           	DEM_PATT_04     	;				
 node_0067       	14          	0           	                	;				
 node_0068       	14          	3           	DEM_PATT_04     	;				
 node_0069       	19.5        	3           	DEM_PATT_04     	;				
 node_0070       	20          	0           	                	;				
 node_0071       	19.299999   	10          	DEM_PATT_04     	;				
 node_0072       	17.799999   	14          	DEM_PATT_04     	;				
 node_0073       	15.2        	0           	                	;				
 node_0074       	15.699999   	0           	                	;				
 node_0075       	18.8        	0           	                	;				
 node_0076       	18.200001   	0           	                	;				
 node_0077       	19.8        	0           	                	;				
 node_0078       	20.999999   	67          	DEM_PATT_04     	;				
 node_0079       	15.3        	0           	                	;				
 node_0080       	15.699999   	0           	                	;				
 node_0081       	15.3        	0           	                	;				
 node_0082       	15          	0           	                	;				
 node_0083       	15.3        	0           	                	;				
 node_0084       	15.3        	0           	                	;				
 node_0085       	15.3        	0           	                	;				
 node_0086       	15.3        	0           	                	;				
 node_0087       	15.3        	0           	                	;				
 node_0088       	15.399999   	0           	                	;				
 node_0089       	15.3        	0           	                	;				
 node_0090       	18.299999   	0           	                	;				
 node_0091       	19.5        	0           	                	;				
 node_0092       	19.5        	0           	                	;				
 node_0093       	21.599999   	0           	                	;				
 node_0094       	21.599999   	0           	                	;				
 node_0095       	19.4        	0           	                	;				
 node_0096       	19.8        	0           	                	;				
 node_0097       	19.8        	0           	                	;				
 node_0098       	19.700002   	0           	                	;				
 node_0099       	20          	0           	                	;				
 node_0100       	15.3        	0           	                	;				
 node_0101       	17.4        	0           	                	;				
 node_0102       	17.4        	0           	                	;				
 node_0103       	16.8        	0           	                	;				
 node_0104       	16.8        	0           	                	;				
 node_0105       	18.4        	0           	                	;				
 node_0106       	17.9        	0           	                	;				
 node_0107       	18.6        	0           	                	;				
 node_0108       	17.299999   	0           	                	;				
 node_0109       	18.4        	12          	DEM_PATT_04     	;				
 node_0110       	17.9        	0           	                	;				
 node_0111       	16          	0           	                	;				
 node_0112       	21.599999   	0           	                	;				
 node_0113       	21.599999   	0           	                	;				
 node_0114       	16.8        	0           	                	;				
 node_0115       	17.5        	0           	                	;				
 node_0116       	15.5        	0           	                	;				
 node_0117       	33.000001   	2           	DEM_PATT_02     	;				
 node_0121       	22.300001   	0           	                	;				
 node_0131       	21.799999   	0           	                	;				
 node_0135       	21.799999   	0           	                	;				
 node_0143       	18.5        	3           	DEM_PATT_04     	;				
 node_0144       	16.5        	40          	DEM_PATT_04     	;				
 node_0145       	17.600001   	2           	DEM_PATT_04     	;				
 node_0146       	26.000001   	3           	DEM_PATT_04     	;				
 node_0147       	20.999999   	11          	DEM_PATT_04     	;				
 node_0148       	18          	0           	                	;				
 node_0150       	18.899999   	0           	                	;				
 node_0151       	18.1        	0           	                	;				
 node_0152       	18.5        	0           	                	;				
 node_0153       	17.200001   	0           	                	;				
 node_0154       	17.799999   	0           	                	;				
 node_0155       	16.700001   	0           	                	;				
 node_0156       	17          	0           	                	;				
 node_0157       	17.9        	0           	                	;				
 node_0158       	17.799999   	0           	                	;				
 node_0159       	17.200001   	0           	                	;				
 node_0160       	17.5        	0           	                	;				
 node_0161       	17.7        	0           	                	;				
 node_0162       	18.200001   	0           	                	;				
 node_0163       	18.299999   	0           	                	;				
 node_0164       	24.400001   	0           	                	;				
 node_0165       	24.3        	0           	                	;				
 node_0167       	15.3        	0           	                	;				
 node_0168       	19          	0           	                	;				
 node_0169       	15.3        	0           	                	;				
 node_0170       	17.449999   	10          	DEM_PATT_04     	;				
 node_0171       	17.077      	0           	                	;				
 node_0399       	23          	0           	                	;				
 node_0400       	23          	0           	                	;				
 node_0402       	18.5        	15          	DEM_PATT_04     	;				
 node_0403       	20.200001   	0           	                	;				
 node_0404       	15.3        	0           	                	;				
 node_0409       	22.300001   	0           	                	;				
 node_0447       	23          	0           	                	;				
 node_0448       	25.000001   	0           	                	;				
 node_0449       	23          	2           	DEM_PATT_08     	;				
 node_0450       	19.4        	28.999998   	DEM_PATT_04     	;				
 node_0451       	20          	12          	DEM_PATT_04     	;				
 node_0452       	19.5        	11          	DEM_PATT_04     	;				
 node_0453       	18.299999   	14          	DEM_PATT_04     	;				
 node_0454       	17.9        	18          	DEM_PATT_04     	;				
 node_0455       	17          	0           	                	;				
 node_0456       	17.5        	0           	                	;				
 node_0457       	21.599999   	1           	DEM_PATT_10     	;				
 node_0458       	16.8        	0           	                	;				
 node_0459       	18.4        	0           	                	;				
 node_0460       	17.299999   	8           	DEM_PATT_04     	;				
 node_0461       	15.3        	1           	DEM_PATT_04     	;				
 node_0462       	15.3        	18          	DEM_PATT_04     	;				
 node_0463       	15.3        	0           	                	;				
 node_0464       	15.3        	25          	DEM_PATT_04     	;				
 node_0465       	15.3        	34          	DEM_PATT_04     	;				
 node_0466       	15.699999   	0           	                	;				
 node_0467       	15.399999   	14          	DEM_PATT_04     	;				
 node_0468       	19          	26          	DEM_PATT_04     	;				
 node_0469       	15          	0           	                	;				
 node_0470       	19.8        	0           	                	;				
 node_0471       	18.5        	23          	DEM_PATT_04     	;				
 node_0472       	15.5        	0           	                	;				
 node_0473       	15.399999   	15          	DEM_PATT_04     	;				
 node_0474       	17.5        	9           	DEM_PATT_04     	;				
 node_0475       	22.300001   	0           	                	;				
 node_0476       	21.799999   	0           	                	;				
 node_0488       	14.6        	7           	DEM_PATT_04     	;				
 node_0489       	15.3        	6           	DEM_PATT_04     	;				
 node_0490       	15.3        	1           	DEM_PATT_04     	;				
 node_0491       	16.2        	0           	                	;				
 node_0492       	16.899999   	0           	                	;				
 node_0493       	17.600001   	0           	                	;				
 node_0494       	17.299999   	7           	DEM_PATT_04     	;				
 node_0495       	17.200001   	0           	                	;				
 node_0496       	16.1        	5           	DEM_PATT_04     	;				
 node_0497       	17.799999   	0           	                	;				
 node_0498       	18.299999   	0           	                	;				
 node_0499       	18.1        	7           	DEM_PATT_04     	;				
 node_0500       	18.200001   	0           	                	;				
 node_0501       	17.4        	28.999998   	DEM_PATT_04     	;				
 node_0502       	24.400001   	7           	DEM_PATT_04     	;				
 node_0504       	27.700001   	0           	                	;				
 node_0507       	17.08       	0           	                	;				
 node_0655       	18          	12          	DEM_PATT_04     	;				
 node_0665       	16.77       	24          	DEM_PATT_04     	;				
 node_0666       	23          	0           	                	;				
 node_0667       	22.300001   	0           	                	;				
 node_0668       	22.300001   	0           	                	;				
 node_0669       	22.300001   	0           	                	;				
 node_0676       	17          	0           	                	;				
 node_0677       	19.4        	0           	                	;				
 node_0678       	19.4        	0           	                	;				
 node_0679       	20.400001   	0           	                	;				
 node_0680       	21.599999   	0           	                	;				
 node_0681       	21.599999   	0           	                	;				
 node_0682       	16.700001   	5           	DEM_PATT_04     	;				
 node_0683       	16          	40          	DEM_PATT_04     	;				
 node_0684       	23          	0           	                	;				
 node_0685       	23          	0           	                	;				
 node_0686       	22.63811    	0           	                	;				
 node_0687       	22.624721   	0           	                	;				
 node_0688       	22.624721   	0           	                	;				
 node_0689       	20.700001   	90          	DEM_PATT_04     	;				
 node_0690       	22.800001   	0           	                	;				
 node_0691       	22.800001   	0           	                	;				
 node_0692       	15.699999   	12          	DEM_PATT_04     	;				
 node_0693       	15.3        	0           	                	;				
 node_0694       	22.300001   	0           	                	;				
 node_0695       	17.9        	9.16667     	DEM_PATT_04     	;				
 node_0696       	17.600001   	0           	                	;				
 node_0731       	22.300001   	0           	                	;				
 node_0732       	22.300001   	0           	                	;				
 node_0734       	20.127229   	1           	DEM_PATT_14     	;				
 node_0735       	20.043913   	0           	                	;				
 node_0736       	20.357373   	0           	                	;				
 node_0737       	18.899999   	0           	                	;				
 node_0739       	21.799999   	0           	                	;				
 node_0742       	21.7        	0           	                	;				
 node_0745       	14.100001   	0           	                	;				
 node_0746       	19.8        	0           	                	;				
 node_0747       	19.4        	0           	                	;				
 node_0748       	19.5        	0           	                	;				
 node_0749       	19.5        	0           	                	;				
 node_0750       	18.299999   	0           	                	;				
 node_0751       	20          	0           	                	;				
 node_0752       	19.700002   	0           	                	;				
 node_0753       	19.8        	0           	                	;				
 node_0754       	17.498576   	0           	                	;				
 node_0755       	22.999388   	0           	                	;				
 node_0756       	23          	0           	                	;				
 node_0757       	21.599999   	0           	                	;				
 node_0758       	21.598867   	0           	                	;				
 node_0759       	21.591202   	0           	                	;				
 node_0760       	21.599999   	0           	                	;				
 node_0761       	15.699999   	0           	                	;				
 node_0762       	15.3        	0           	                	;				
 node_0763       	20.999999   	0           	                	;				
 node_0764       	19.8        	0           	                	;				
 node_0765       	18.200001   	0           	                	;				
 node_0766       	18.8        	0           	                	;				
 node_0767       	15.699999   	0           	                	;				
 node_0768       	15.2        	0           	                	;				
 node_0769       	15.3        	0           	                	;				
 node_0770       	15.399999   	0           	                	;				
 node_0771       	15.3        	0           	                	;				
 node_0772       	15.3        	0           	                	;				
 node_0773       	15.3        	0           	                	;				
 node_0774       	15.3        	0           	                	;				
 node_0775       	15.3        	0           	                	;				
 node_0776       	15          	0           	                	;				
 node_0777       	15.3        	0           	                	;				
 node_0778       	16          	0           	                	;				
 node_0779       	17.9        	0           	                	;				
 node_0780       	18.4        	0           	                	;				
 node_0781       	17.299999   	0           	                	;				
 node_0782       	18.6        	0           	                	;				
 node_0783       	17.9        	0           	                	;				
 node_0784       	18.4        	0           	                	;				
 node_0785       	16.8        	0           	                	;				
 node_0786       	16.8        	0           	                	;				
 node_0787       	17.5        	0           	                	;				
 node_0788       	17.4        	0           	                	;				
 node_0789       	15.3        	0           	                	;				
 node_0790       	15.5        	0           	                	;				
 node_0791       	16.8        	0           	                	;				
 node_0792       	17.5        	0           	                	;				
 node_0793       	17.200001   	0           	                	;				
 node_0794       	17.799999   	0           	                	;				
 node_0795       	17.5        	0           	                	;				
 node_0796       	17          	0           	                	;				
 node_0797       	16.700001   	0           	                	;				
 node_0798       	17.799999   	0           	                	;				
 node_0799       	17.200001   	0           	                	;				
 node_0800       	18.1        	0           	                	;				
 node_0801       	18.899999   	0           	                	;				
 node_0802       	24.400001   	0           	                	;				
 node_0803       	18.299999   	0           	                	;				
 node_0804       	18.200001   	0           	                	;				
 node_0805       	17.7        	0           	                	;				
 node_0806       	24.3        	0           	                	;				
 node_0807       	15.3        	0           	                	;				
 node_0808       	19          	0           	                	;				
 node_0809       	15.3        	0           	                	;				
 node_0811       	17.077823   	0           	                	;				
 node_0827       	21.799999   	0           	                	;				
 node_1062       	22.300001   	0           	                	;				
 node_1063       	22.300001   	0           	                	;				
 node_1064       	17.1        	0           	                	;				
 node_1065       	23.899999   	0           	                	;				
 node_1066       	19.794005   	0           	                	;				
 node_1094       	20          	5           	DEM_PATT_05     	;				
 node_1095       	20          	5           	DEM_PATT_05     	;				
 node_1096       	20          	5           	DEM_PATT_05     	;				
 node_1097       	20          	5           	DEM_PATT_05     	;				
 node_1098       	20          	5           	DEM_PATT_05     	;				
 node_1099       	20          	5           	DEM_PATT_05     	;				
 node_1100       	20          	5           	DEM_PATT_05     	;				
 node_1101       	20          	5           	DEM_PATT_05     	;				
 node_1102       	20          	5           	DEM_PATT_05     	;				
 node_1103       	20          	0           	                	;				
 node_1104       	20          	5           	DEM_PATT_05     	;				
 node_1105       	20          	0           	                	;				
 node_1106       	20          	5           	DEM_PATT_05     	;				
 node_1107       	20          	5           	DEM_PATT_05     	;				
 node_1108       	20          	5           	DEM_PATT_05     	;				
 node_1109       	20          	5           	DEM_PATT_05     	;				
 node_1110       	20          	5           	DEM_PATT_05     	;				
 node_1111       	20          	5           	DEM_PATT_05     	;				
 node_1112       	20          	5           	DEM_PATT_05     	;				
 node_1113       	20          	5           	DEM_PATT_05     	;				
 node_1114       	20          	5           	DEM_PATT_05     	;				
 node_1115       	20          	5           	DEM_PATT_05     	;				
 node_1116       	20          	5           	DEM_PATT_05     	;				
 node_1117       	20          	5           	DEM_PATT_05     	;				
 node_1118       	15.399999   	0           	                	;				
 node_1119       	15.399999   	0           	                	;				
 node_1120       	21.799999   	1           	DEM_PATT_04     	;				
 node_1121       	15.600001   	0           	                	;				
 node_1122       	15.3        	0           	                	;				
 node_1123       	19.899999   	4           	DEM_PATT_04     	;				
 node_1124       	19.5        	0           	                	;				
 node_1125       	17.9        	20          	DEM_PATT_04     	;				
 node_1126       	19.5        	0           	                	;				
 node_1127       	19.5        	0           	                	;				
 node_1128       	20          	0           	                	;				
 node_1129       	20          	0           	                	;				
 node_1130       	20.1        	0           	                	;				
 node_1131       	20.200001   	0           	                	;				
 node_1135       	15.2        	1           	DEM_PATT_04     	;				
 node_1136       	16.5        	9           	DEM_PATT_04     	;				
 node_1137       	15.3        	15          	DEM_PATT_04     	;				
 node_1138       	20          	20          	DEM_PATT_06     	;				
 node_1139       	20          	0           	                	;				
 node_1140       	20          	4           	DEM_PATT_06     	;				
 node_1141       	20          	0           	                	;				
 node_1142       	20          	17          	DEM_PATT_06     	;				
 node_1143       	20          	5           	DEM_PATT_05     	;				
 node_1144       	20          	5           	DEM_PATT_05     	;				

[RESERVOIRS]
;ID              	Head        	Pattern         
 reservoir_1     	60          	                	;					

[TANKS]
;ID              	Elevation   	InitLevel   	MinLevel    	MaxLevel    	Diameter    	MinVol      	VolCurve        	Overflow

[PIPES]
;ID              	Node1           	Node2           	Length      	Diameter    	Roughness   	MinorLoss   	Status
 link_0045       	node_0666       	node_0400       	4.471       	148         	117         	0           	OPEN  	;
 link_0046       	node_0756       	node_0666       	40.276001   	148         	117         	0           	OPEN  	;
 link_0047       	node_0476       	node_0669       	530.780029  	203         	99          	0           	OPEN  	;
 link_0059       	node_0665       	node_0493       	635.119995  	76          	99          	0           	OPEN  	;
 link_0060       	node_0507       	node_0665       	195.330002  	76          	99          	0           	OPEN  	;
 link_0102       	node_0499       	node_0500       	3.561       	76          	109         	0           	OPEN  	;
 link_0103       	node_0495       	node_0500       	58.378002   	76          	109         	0           	OPEN  	;
 link_0104       	node_0148       	node_0798       	9.897       	76          	99          	0           	OPEN  	;
 link_0105       	node_0492       	node_0495       	21.299999   	76          	99          	0           	OPEN  	;
 link_0106       	node_0489       	node_0797       	115.599998  	78          	117         	0           	OPEN  	;
 link_0107       	node_0494       	node_0796       	49.483002   	101         	99          	0           	OPEN  	;
 link_0108       	node_0497       	node_0157       	3.621       	101         	99          	0           	OPEN  	;
 link_0109       	node_0501       	node_0794       	123.639999  	76          	99          	0           	OPEN  	;
 link_0111       	node_0143       	node_0792       	138.600006  	78          	117         	0           	OPEN  	;
 link_0112       	node_0801       	node_1065       	78.445724   	51          	99          	0           	OPEN  	;
 link_0113       	node_0151       	node_0499       	6.88        	76          	99          	0           	OPEN  	;
 link_0114       	node_0152       	node_0499       	8.356       	76          	109         	0           	OPEN  	;
 link_0115       	node_0153       	node_0495       	4.783       	76          	99          	0           	OPEN  	;
 link_0116       	node_0154       	node_0493       	4.288       	76          	99          	0           	OPEN  	;
 link_0117       	node_0155       	node_0492       	4.59        	78          	117         	0           	OPEN  	;
 link_0118       	node_0156       	node_0492       	16.923      	101         	99          	0           	OPEN  	;
 link_0119       	node_0795       	node_0494       	86.524002   	101         	99          	0           	OPEN  	;
 link_0120       	node_0737       	node_0501       	2.874196    	101         	138         	0           	OPEN  	;
 link_0121       	node_0159       	node_0501       	5.284       	76          	99          	0           	OPEN  	;
 link_0122       	node_0160       	node_0497       	3.88        	78          	117         	0           	OPEN  	;
 link_0123       	node_0161       	node_0494       	7.078       	78          	117         	0           	OPEN  	;
 link_0124       	node_0162       	node_0498       	5.335       	78          	117         	0           	OPEN  	;
 link_0127       	node_0491       	node_0793       	102.719994  	76          	99          	0           	OPEN  	;
 link_0128       	node_0496       	node_0808       	46.480999   	76          	99          	0           	OPEN  	;
 link_0129       	node_1136       	node_0496       	56.598      	76          	99          	0           	OPEN  	;
 link_0130       	node_1137       	node_0496       	84.320007   	76          	99          	0           	OPEN  	;
 link_0131       	node_0490       	node_0491       	35.511002   	76          	99          	0           	OPEN  	;
 link_0132       	node_0488       	node_0809       	146.770004  	76          	99          	0           	OPEN  	;
 link_0135       	node_0167       	node_0490       	2.177       	76          	99          	0           	OPEN  	;
 link_0136       	node_0168       	node_0491       	3.583       	76          	99          	0           	OPEN  	;
 link_0137       	node_0169       	node_0490       	4.354       	76          	99          	0           	OPEN  	;
 link_0138       	node_0498       	node_0805       	19.381001   	78          	117         	0           	OPEN  	;
 link_0139       	node_0145       	node_0804       	32.630001   	78          	117         	0           	OPEN  	;
 link_0140       	node_0502       	node_0803       	124.419998  	78          	117         	0           	OPEN  	;
 link_0141       	node_0146       	node_0802       	29.469999   	78          	117         	0           	OPEN  	;
 link_0142       	node_0147       	node_0806       	64.709999   	78          	117         	0           	OPEN  	;
 link_0143       	node_0500       	node_0150       	15.006      	51          	99          	0           	OPEN  	;
 link_0144       	node_0163       	node_0498       	5.13        	78          	117         	0           	OPEN  	;
 link_0145       	node_0164       	node_0502       	3.686       	78          	117         	0           	OPEN  	;
 link_0146       	node_0165       	node_0502       	4.704       	78          	117         	0           	OPEN  	;
 link_0440       	node_0171       	node_0507       	0.101       	78          	117         	0           	OPEN  	;
 link_0441       	node_0170       	node_0811       	226.300003  	78          	117         	0           	OPEN  	;
 link_0471       	node_0131       	node_0476       	1.99        	203         	99          	0           	OPEN  	;
 link_0474       	node_0135       	node_0476       	2.283       	76          	99          	0           	OPEN  	;
 link_0483       	node_0474       	node_0115       	5.324       	76          	99          	0           	OPEN  	;
 link_0484       	node_0754       	node_0790       	620.720032  	76          	99          	0           	OPEN  	;
 link_0485       	node_0116       	node_0473       	23.459999   	76          	99          	0           	OPEN  	;
 link_0498       	node_0121       	node_0475       	5.718       	78          	117         	0           	OPEN  	;
 link_0505       	node_0117       	node_0827       	550.76001   	76          	99          	0           	OPEN  	;
 link_0511       	node_0083       	node_0463       	1.477       	76          	99          	0           	OPEN  	;
 link_0512       	node_0084       	node_0462       	13.907      	76          	99          	0           	OPEN  	;
 link_0513       	node_0144       	node_0766       	224.539993  	100         	117         	0           	OPEN  	;
 link_0514       	node_0466       	node_0468       	141.550003  	76          	99          	0           	OPEN  	;
 link_0515       	node_0471       	node_0472       	84.731003   	76          	99          	0           	OPEN  	;
 link_0516       	node_0470       	node_0471       	68.386002   	76          	99          	0           	OPEN  	;
 link_0517       	node_0468       	node_0470       	53.066002   	76          	99          	0           	OPEN  	;
 link_0518       	node_0470       	node_0077       	0.959       	78          	117         	0           	OPEN  	;
 link_0519       	node_0467       	node_0777       	96.566994   	76          	99          	0           	OPEN  	;
 link_0520       	node_0469       	node_0467       	65.040001   	78          	117         	0           	OPEN  	;
 link_0521       	node_0067       	node_0469       	14.042      	78          	117         	0           	OPEN  	;
 link_0522       	node_0068       	node_0776       	83.291      	78          	117         	0           	OPEN  	;
 link_0523       	node_0462       	node_0775       	1.476       	76          	99          	0           	OPEN  	;
 link_0524       	node_0461       	node_0085       	1.992       	76          	99          	0           	OPEN  	;
 link_0525       	node_0473       	node_0772       	117.290001  	76          	99          	0           	OPEN  	;
 link_0526       	node_0467       	node_0088       	5.469       	75          	138         	0           	OPEN  	;
 link_0527       	node_0465       	node_0769       	60.891003   	78          	117         	0           	OPEN  	;
 link_0528       	node_0451       	node_0753       	112.190002  	76          	128         	0           	OPEN  	;
 link_0529       	node_0070       	node_0451       	1.931       	76          	99          	0           	OPEN  	;
 link_0530       	node_0452       	node_0092       	2.144       	100         	117         	0           	OPEN  	;
 link_0531       	node_0069       	node_0749       	24.098      	100         	117         	0           	OPEN  	;
 link_0532       	node_0451       	node_0099       	1.847       	100         	117         	0           	OPEN  	;
 link_0533       	node_0464       	node_0761       	128.889999  	76          	138         	0           	OPEN  	;
 link_0534       	node_0463       	node_0079       	3.325       	76          	99          	0           	OPEN  	;
 link_0535       	node_0460       	node_0101       	7.968       	76          	109         	0           	OPEN  	;
 link_0536       	node_0655       	node_0787       	43.725998   	76          	99          	0           	OPEN  	;
 link_0537       	node_0455       	node_0453       	80.925995   	76          	138         	0           	OPEN  	;
 link_0538       	node_0458       	node_0460       	45.158001   	78          	117         	0           	OPEN  	;
 link_0539       	node_0455       	node_0104       	5.645       	78          	117         	0           	OPEN  	;
 link_0540       	node_0071       	node_0782       	43.800999   	100         	117         	0           	OPEN  	;
 link_0541       	node_0456       	node_0458       	32.782001   	100         	117         	0           	OPEN  	;
 link_0542       	node_0456       	node_0108       	6.431       	100         	117         	0           	OPEN  	;