[TITLE]
pescara -- Bragalli, D'Ambrosio, Lee, Lodi, Toth (2008)

[JUNCTIONS]
;ID              	Elev        	Demand      	Pattern         
 1               	2.9000      	3.336667    	1               	; 
 2               	5.0000      	4.143333    	1               	; 
 3               	3.5000      	2.833333    	1               	; 
 4               	3.8000      	2.833333    	1               	; 
 5               	2.2000      	4.040000    	1               	; 
 6               	7.0000      	0.543333    	1               	; 
 8               	5.2000      	11.200000   	1               	; 
 9               	4.3000      	1.460000    	1               	; 
 10              	5.2000      	5.466667    	1               	; 
 11              	28.0000     	9.923333    	1               	; 
 12              	3.2000      	0.163333    	1               	; 
 13              	3.2000      	2.496667    	1               	; 
 14              	19.2000     	2.020000    	1               	; 
 17              	4.0000      	0.923333    	1               	; 
 18              	3.5000      	1.676667    	1               	; 
 19              	2.8000      	1.603333    	1               	; 
 20              	2.7000      	7.013334    	1               	; 
 21              	1.8000      	5.646667    	1               	; 
 22              	2.1000      	3.470000    	1               	; 
 23              	2.0000      	0.723333    	1               	; 
 24              	18.7000     	2.183333    	1               	; 
 25              	3.2000      	3.470000    	1               	; 
 26              	1.6000      	0.926667    	1               	; 
 27              	3.8000      	1.773333    	1               	; 
 28              	4.3000      	1.210000    	1               	; 
 29              	3.6000      	11.000000   	1               	; 
 30              	3.2000      	2.000000    	1               	; 
 31              	2.8000      	2.133333    	1               	; 
 32              	1.8000      	0.986667    	1               	; 
 33              	3.8000      	1.030000    	1               	; 
 34              	2.9000      	1.030000    	1               	; 
 35              	3.7000      	2.930000    	1               	; 
 36              	2.1000      	0.560000    	1               	; 
 37              	6.7000      	4.213334    	1               	; 
 38              	6.7000      	4.213334    	1               	; 
 39              	4.2000      	4.213334    	1               	; 
 40              	2.9000      	1.853333    	1               	; 
 41              	2.9000      	0.866667    	1               	; 
 42              	28.5000     	1.523333    	1               	; 
 44              	27.3000     	2.520000    	1               	; 
 45              	1.1000      	2.070000    	1               	; 
 46              	2.5000      	1.030000    	1               	; 
 47              	2.8000      	0.196667    	1               	; 
 48              	3.3000      	4.210000    	1               	; 
 49              	1.8000      	1.136667    	1               	; 
 50              	1.8000      	4.403333    	1               	; 
 51              	1.6000      	1.290000    	1               	; 
 52              	1.8000      	2.143333    	1               	; 
 53              	1.6000      	0.850000    	1               	; 
 54              	3.3000      	0.000000    	1               	; 
 55              	2.5000      	3.766667    	1               	; 
 56              	2.8000      	1.330000    	1               	; 
 57              	3.2000      	2.583333    	1               	; 
 58              	3.6000      	0.636667    	1               	; 
 59              	3.8000      	0.293333    	1               	; 
 60              	3.1000      	1.713333    	1               	; 
 61              	3.0000      	1.713333    	1               	; 
 62              	4.2000      	2.480000    	1               	; 
 76              	4.2000      	0.000000    	1               	; 
 82              	2.1000      	0.003333    	1               	; 
 83              	2.1000      	0.000000    	1               	; 
 84              	3.3000      	0.180000    	1               	; 
 85              	2.1000      	0.123333    	1               	; 
 86              	1.5000      	2.153333    	1               	; 
 87              	19.2000     	8.333333    	1               	; 
 88              	2.1000      	0.716667    	1               	; 
 89              	1.5000      	0.583333    	1               	; 

[RESERVOIRS]
;ID              	Head        	Pattern         
 15              	57.0000     	                	; 
 43              	53.0800     	                	; 
 65              	55.0000     	                	; 

[TANKS]
;ID              	Elevation   	InitLevel   	MinLevel    	MaxLevel    	Diameter    	MinVol      	VolCurve

[PIPES]
;ID              	Node1           	Node2           	Length      	Diameter    	Roughness   	MinorLoss   	Status
 1               	1               	2               	977.3600    	100.0000    	98.0000     	0.0000      	Open  	; 
 2               	3               	4               	443.1700    	150.0000    	115.0000    	0.0000      	Open  	; 
 3               	3               	5               	1410.7700   	100.0000    	62.0000     	0.0000      	Open  	; 
 4               	3               	1               	269.6100    	125.0000    	102.0000    	0.0000      	Open  	; 
 6               	6               	8               	203.0600    	100.0000    	95.0000     	0.0000      	Open  	; 
 7               	9               	6               	2309.1400   	100.0000    	74.0000     	0.0000      	Open  	; 
 8               	10              	11              	1479.9800   	150.0000    	85.0000     	0.0000      	Open  	; 
 11              	15              	14              	43.9700     	350.0000    	95.0000     	0.0000      	Open  	; 
 12              	13              	17              	589.1600    	200.0000    	138.0000    	0.0000      	Open  	; 
 13              	18              	13              	618.5300    	200.0000    	127.0000    	0.0000      	Open  	; 
 14              	18              	19              	341.1000    	200.0000    	73.0000     	0.0000      	Open  	; 
 15              	20              	18              	341.9200    	100.0000    	130.0000    	0.0000      	Open  	; 
 16              	21              	20              	434.2400    	100.0000    	100.0000    	0.0000      	Open  	; 
 17              	22              	23              	240.5900    	100.0000    	90.0000     	0.0000      	Open  	; 
 18              	24              	25              	957.4400    	200.0000    	100.0000    	0.0000      	Open  	; 
 19              	14              	24              	171.0400    	350.0000    	88.0000     	0.0000      	Open  	; 
 20              	24              	17              	235.5700    	300.0000    	89.0000     	0.0000      	Open  	; 
 21              	26              	17              	3.5900      	200.0000    	110.0000    	0.0000      	Open  	; 
 22              	26              	27              	324.3600    	200.0000    	109.0000    	0.0000      	Open  	; 
 24              	21              	22              	749.7400    	100.0000    	109.0000    	0.0000      	Open  	; 
 25              	23              	21              	639.7000    	100.0000    	100.0000    	0.0000      	Open  	; 
 26              	27              	23              	422.9500    	100.0000    	75.0000     	0.0000      	Open  	; 
 27              	20              	27              	843.5200    	125.0000    	100.0000    	0.0000      	Open  	; 
 28              	19              	20              	609.2300    	100.0000    	112.0000    	0.0000      	Open  	; 
 29              	28              	29              	179.0400    	150.0000    	97.0000     	0.0000      	Open  	; 
 30              	28              	30              	570.9000    	100.0000    	104.0000    	0.0000      	Open  	; 
 31              	30              	28              	575.7300    	100.0000    	100.0000    	0.0000      	Open  	; 
 32              	31              	32              	250.2800    	100.0000    	87.0000     	0.0000      	Open  	; 
 33              	30              	33              	442.1100    	100.0000    	95.0000     	0.0000      	Open  	; 
 34              	34              	30              	762.3500    	100.0000    	81.0000     	0.0000      	Open  	; 
 35              	35              	36              	1124.9000   	100.0000    	103.0000    	0.0000      	Open  	; 
 36              	31              	11              	1903.7500   	100.0000    	76.0000     	0.0000      	Open  	; 
 37              	37              	31              	125.5100    	125.0000    	77.0000     	0.0000      	Open  	; 
 38              	37              	38              	121.2700    	200.0000    	80.0000     	0.0000      	Open  	; 
 39              	19              	38              	55.3200     	200.0000    	53.0000     	0.0000      	Open  	; 
 41              	40              	39              	424.8600    	100.0000    	110.0000    	0.0000      	Open  	; 
 42              	40              	41              	72.8000     	100.0000    	95.0000     	0.0000      	Open  	; 
 43              	9               	40              	554.0800    	100.0000    	81.0000     	0.0000      	Open  	; 
 44              	33              	9               	305.5300    	100.0000    	109.0000    	0.0000      	Open  	; 
 45              	41              	33              	568.3500    	100.0000    	69.0000     	0.0000      	Open  	; 
 46              	34              	41              	63.8100     	100.0000    	90.0000     	0.0000      	Open  	; 
 47              	39              	34              	310.7600    	100.0000    	88.0000     	0.0000      	Open  	; 
 48              	12              	39              	1217.1700   	200.0000    	95.0000     	0.0000      	Open  	; 
 49              	25              	12              	365.8200    	150.0000    	95.0000     	0.0000      	Open  	; 
 50              	35              	25              	1408.3300   	100.0000    	80.0000     	0.0000      	Open  	; 
 51              	29              	35              	33.2500     	100.0000    	91.0000     	0.0000      	Open  	; 
 52              	8               	29              	720.9000    	200.0000    	89.0000     	0.0000      	Open  	; 
 53              	42              	11              	441.6900    	250.0000    	99.0000     	0.0000      	Open  	; 
 54              	43              	42              	332.9900    	400.0000    	105.0000    	0.0000      	Open  	; 
 55              	44              	42              	229.8500    	350.0000    	105.0000    	0.0000      	Open  	; 
 56              	45              	46              	500.9200    	100.0000    	80.0000     	0.0000      	Open  	; 
 57              	47              	48              	232.0700    	250.0000    	92.0000     	0.0000      	Open  	; 
 58              	32              	49              	5.4300      	100.0000    	75.0000     	0.0000      	Open  	; 
 59              	46              	32              	66.2400     	100.0000    	77.0000     	0.0000      	Open  	; 
 60              	50              	46              	232.1300    	100.0000    	91.0000     	0.0000      	Open  	; 
 61              	49              	50              	154.7800    	100.0000    	111.0000    	0.0000      	Open  	; 
 62              	48              	49              	645.1000    	100.0000    	81.0000     	0.0000      	Open  	; 
 63              	51              	48              	157.8700    	200.0000    	96.0000     	0.0000      	Open  	; 
 64              	50              	51              	645.7900    	100.0000    	88.0000     	0.0000      	Open  	; 
 65              	52              	50              	206.6900    	100.0000    	106.0000    	0.0000      	Open  	; 
 66              	51              	53              	156.7500    	150.0000    	77.0000     	0.0000      	Open  	; 
 68              	54              	55              	152.8100    	100.0000    	91.0000     	0.0000      	Open  	; 
 70              	56              	47              	52.3700     	250.0000    	98.0000     	0.0000      	Open  	; 
 71              	44              	57              	394.6700    	300.0000    	105.0000    	0.0000      	Open  	; 
 72              	56              	44              	774.6900    	100.0000    	111.0000    	0.0000      	Open  	; 
 73              	57              	56              	435.5800    	200.0000    	92.0000     	0.0000      	Open  	; 
 74              	58              	57              	899.6700    	250.0000    	72.0000     	0.0000      	Open  	; 
 75              	59              	60              	198.5000    	125.0000    	81.0000     	0.0000      	Open  	; 
 76              	55              	61              	1116.1500   	100.0000    	77.0000     	0.0000      	Open  	; 
 78              	52              	53              	631.8000    	100.0000    	122.0000    	0.0000      	Open  	; 
 79              	45              	52              	350.9700    	100.0000    	83.0000     	0.0000      	Open  	; 
 81              	61              	5               	226.0300    	125.0000    	101.0000    	0.0000      	Open  	; 
 82              	60              	61              	186.7700    	100.0000    	88.0000     	0.0000      	Open  	; 
 83              	58              	60              	337.2400    	100.0000    	103.0000    	0.0000      	Open  	; 
 84              	62              	58              	173.0900    	250.0000    	81.0000     	0.0000      	Open  	; 
 85              	62              	2               	784.4500    	100.0000    	73.0000     	0.0000      	Open  	; 
 86              	59              	62              	86.3900     	200.0000    	73.0000     	0.0000      	Open  	; 
 87              	4               	59              	732.9300    	200.0000    	97.0000     	0.0000      	Open  	; 
 88              	2               	4               	193.7800    	100.0000    	89.0000     	0.0000      	Open  	; 
 89              	65              	6               	1744.2700   	100.0000    	88.0000     	0.0000      	Open  	; 
 90              	65              	76              	154.1800    	250.0000    	109.0000    	0.0000      	Open  	; 
 92              	86              	45              	1635.6900   	100.0000    	95.0000     	0.0000      	Open  	; 
 93              	76              	8               	1072.6900   	250.0000    	94.0000     	0.0000      	Open  	; 
 94              	82              	83              	5.0000      	100.0000    	112.0000    	0.0000      	Open  	; 
 95              	82              	85              	240.0500    	100.0000    	81.0000     	0.0000      	Open  	; 
 96              	22              	85              	841.6300    	100.0000    	100.0000    	0.0000      	Open  	; 
 97              	26              	83              	601.5800    	100.0000    	102.0000    	0.0000      	Open  	; 
 98              	5               	86              	1600.0000   	100.0000    	88.0000     	0.0000      	Open  	; 
 100             	54              	84              	180.0000    	100.0000    	94.0000     	0.0000      	Open  	; 
 102             	83              	85              	240.0000    	100.0000    	76.0000     	0.0000      	Open  	; 
 103             	43              	87              	10.0000     	150.0000    	76.0000     	0.0000      	Open  	; 
 104             	55              	89              	179.5400    	100.0000    	92.0000     	0.0000      	Open  	; 
 105             	89              	53              	331.4000    	100.0000    	100.0000    	0.0000      	Open  	; 
 106             	55              	88              	332.3500    	100.0000    	125.0000    	0.0000      	Open  	; 
 107             	88              	51              	325.0300    	100.0000    	82.0000     	0.0000      	Open  	; 
 108             	84              	88              	113.3500    	100.0000    	93.0000     	0.0000      	Open  	; 
 109             	88              	89              	150.8200    	100.0000    	90.0000     	0.0000      	Open  	; 
 110             	55              	86              	165.4300    	100.0000    	66.0000     	0.0000      	Open  	; 

[PUMPS]
;ID              	Node1           	Node2           	Parameters

[VALVES]
;ID              	Node1           	Node2           	Diameter    	Type	Setting     	MinorLoss   

[TAGS]

[DEMANDS]
;Junction        	Demand      	Pattern         	Category

[STATUS]
;ID              	Status/Setting

[PATTERNS]
;ID              	Multipliers
;
 1               	0.4100      	0.4100      	0.2100      	0.2100      	0.2100      	0.2100      
 1               	0.6100      	0.6100      	1.0300      	1.0300      	0.9300      	0.9300      
 1               	0.7200      	0.7200      	0.7200      	0.7200      	0.8300      	0.8300      
 1               	0.7200      	0.7200      	0.6200      	0.4100      	0.4100      	0.4100      

[CURVES]
;ID              	X-Value     	Y-Value

[CONTROLS]


[RULES]


[ENERGY]
 Global Efficiency  	75.0000
 Global Price       	0
 Demand Charge      	0.0000

[EMITTERS]
;Junction        	Coefficient

[QUALITY]
;Node            	InitQual

[SOURCES]
;Node            	Type        	Quality     	Pattern

[REACTIONS]
;Type     	Pipe/Tank       	Coefficient


[REACTIONS]
 Order Bulk            	1.00
 Order Tank            	1.00
 Order Wall            	1
 Global Bulk           	0.000000
 Global Wall           	0.000000
 Limiting Potential    	0
 Roughness Correlation 	0

[MIXING]
;Tank            	Model

[TIMES]
 Duration           	24:00 
 Hydraulic Timestep 	1:00 
 Quality Timestep   	0:05 
 Pattern Timestep   	1:00 
 Pattern Start      	0:00 
 Report Timestep    	1:00 
 Report Start       	0:00 
 Start ClockTime    	0:00:00
 Statistic          	NONE

[REPORT]
 Status             	Yes
 Summary            	No
 Page               	0

[OPTIONS]
 Units              	LPS
 Headloss           	H-W
 Specific Gravity   	1.000000
 Viscosity          	1.000000
 Trials             	40
 Accuracy           	0.00100000
 CHECKFREQ          	2
 MAXCHECK           	10
 DAMPLIMIT          	0.00000000
 Unbalanced         	Continue 10
 Pattern            	1
 Demand Multiplier  	1.0000
 Emitter Exponent   	0.5000
 Quality            	None mg/L
 Diffusivity        	1.000000
 Tolerance          	0.01000000

[COORDINATES]
;Node            	X-Coord         	Y-Coord
 1               	656582.88       	963296.25       
 2               	657289.06       	963069.50       
 3               	656852.19       	963283.19       
 4               	657294.63       	963262.25       
 5               	657933.44       	963588.94       
 6               	661346.75       	960658.38       
 8               	661547.63       	960688.13       
 9               	660262.19       	961842.69       
 10              	659947.69       	961952.63       
 11              	659120.75       	962107.19       
 12              	661689.69       	962215.25       
 13              	661623.88       	962717.69       
 14              	662482.81       	962917.75       
 17              	662131.88       	963005.56       
 18              	661006.88       	962760.81       
 19              	660673.44       	962792.06       
 20              	661012.00       	963102.44       
 21              	661221.06       	963474.69       
 22              	661856.94       	963711.13       
 23              	661860.75       	963473.88       
 24              	662326.00       	962957.19       
 25              	662031.81       	962086.69       
 26              	662135.06       	963007.19       
 27              	661853.69       	963051.00       
 28              	661141.50       	961352.25       
 29              	661319.63       	961368.81       
 30              	660878.69       	961712.13       
 31              	660390.13       	962876.63       
 32              	660381.19       	963121.00       
 33              	660557.31       	961781.06       
 34              	660596.63       	962340.81       
 35              	661308.00       	961400.00       
 36              	660857.63       	962345.56       
 37              	660500.44       	962822.94       
 38              	660618.31       	962796.50       
 39              	660651.25       	962646.69       
 40              	660461.31       	962359.19       
 41              	660533.31       	962348.81       
 42              	659046.31       	962535.19       
 44              	659015.00       	962761.75       
 45              	660704.56       	963432.50       
 46              	660447.38       	963119.13       
 47              	659504.06       	963179.19       
 48              	659732.88       	963154.94       
 49              	660377.06       	963121.75       
 50              	660375.88       	963276.44       
 51              	659734.19       	963310.88       
 52              	660371.38       	963483.06       
 53              	659739.94       	963467.50       
 54              	659230.13       	963333.94       
 55              	659229.19       	963481.63       
 56              	659457.44       	963155.31       
 57              	659097.25       	963096.19       
 58              	658198.44       	963134.44       
 59              	658026.94       	963233.88       
 60              	658114.75       	963350.06       
 61              	658119.75       	963536.75       
 62              	658025.81       	963147.50       
 76              	662523.13       	960626.31       
 82              	662454.00       	963567.13       
 83              	662458.63       	963565.25       
 84              	659408.69       	963212.44       
 85              	662548.06       	963787.94       
 86              	659408.69       	963642.06       
 87              	658728.69       	962454.75       
 88              	659408.69       	963325.81       
 89              	659408.69       	963476.63       
 15              	662492.56       	962874.81       
 43              	658738.69       	962454.75       
 65              	662568.19       	960492.44       

[VERTICES]
;Link            	X-Coord         	Y-Coord

[LABELS]
;X-Coord           Y-Coord          Label & Anchor Node

[BACKDROP]
 DIMENSIONS     	656280.19       	960321.30       	662939.25       	963953.02       
 UNITS          	None
 FILE           	
 OFFSET         	0.00            	0.00            

[END]
