[TITLE]								
								
								
[JUNCTIONS]								
;ID              	Elev        	Demand      	Pattern         					
 node_0001       	27.965236	0.003846	                	;				
 node_0003       	51.559723	0.003846	                	;				
 node_0004       	44.545853	0.003846	                	;				
 node_0005       	39.001898	0.003846	                	;				
 node_0006       	39.51	0.003846	                	;				
 node_0007       	42.604299	0.003846	                	;				
 node_0008       	47.437245	0.003846	                	;				
 node_0009       	18.407785	0.003846	                	;				
 node_0010       	15.444212	0.003846	                	;				
 node_0011       	54.171954	0.003846	                	;				
 node_0012       	46.613206	0.003846	                	;				
 node_0013       	52.07827	0.003846	                	;				
 node_0014       	46.822226	0.003846	                	;				
 node_0015       	51.305197	0.003846	                	;				
 node_0016       	49.205102	0.003846	                	;				
 node_0017       	49.954792	0.003846	                	;				
 node_0018       	51.242215	0.003846	                	;				
 node_0019       	41.229555	0.003846	                	;				
 node_0020       	42.638169	0.003846	                	;				
 node_0021       	42.30857	0.003846	                	;				
 node_0022       	41.51386	0.003846	                	;				
 node_0023       	24.862866	0.003846	                	;				
 node_0024       	15.624059	0.003846	                	;				
 node_0025       	15.491523	0.003846	                	;				
 node_0026       	24.845056	0.003846	                	;				
 node_0027       	24.852542	0.003846	                	;				
 node_0028       	39.986989	0.003846	                	;				
 node_0059       	56.470534	0.003846	                	;				
 node_0064       	54.544316	0.003846	                	;				
 node_0065       	54.432323	0.003846	                	;				
 node_0066       	54.45532	0.003846	                	;				
 node_0067       	54.172261	0.003846	                	;				
 node_0068       	54.179102	0.003846	                	;				
 node_0069       	54.206049	0.003846	                	;				
 node_0070       	54.159509	0.003846	                	;				
 node_0071       	54.159611	0.003846	                	;				
 node_0072       	49.880939	0.003846	                	;				
 node_0073       	44.519714	0.003846	                	;				
 node_0074       	42.886984	0.003846	                	;				
 node_0075       	42.405297	0.003846	                	;				
 node_0076       	44.159507	0.003846	                	;				
 node_0077       	43.412316	0.003846	                	;				
 node_0078       	45.139019	0.003846	                	;				
 node_0079       	42.552615	0.003846	                	;				
 node_0080       	44.508096	0.003846	                	;				
 node_0081       	45.180859	0.003846	                	;				
 node_0082       	45.285168	0.003846	                	;				
 node_0083       	45.210055	0.003846	                	;				
 node_0084       	44.911325	0.003846	                	;				
 node_0085       	45.162553	0.003846	                	;				
 node_0086       	45.179744	0.003846	                	;				
 node_0087       	44.334901	0.003846	                	;				
 node_0088       	44.810154	0.003846	                	;				
 node_0089       	44.406762	0.003846	                	;				
 node_0090       	42.896425	0.003846	                	;				
 node_0091       	43.507262	0.003846	                	;				
 node_0119       	56.733339	0.003846	                	;				
 node_0120       	60.282231	0.003846	                	;				
 node_0121       	60.099755	0.003846	                	;				
 node_0122       	57.394396	0.003846	                	;				
 node_0123       	58.254639	0.003846	                	;				
 node_0124       	58.824272	0.003846	                	;				
 node_0125       	59.833311	0.003846	                	;				
 node_0126       	63.760215	0.003846	                	;				
 node_0132       	54.609864	0.003846	                	;				
 node_0133       	54.957472	0.003846	                	;				
 node_0134       	60.460504	0.003846	                	;				
 node_0135       	57.335776	0.003846	                	;				
 node_0136       	55.701527	0.003846	                	;				
 node_0137       	59.991981	0.003846	                	;				
 node_0138       	59.535368	0.003846	                	;				
 node_0139       	59.634023	0.003846	                	;				
 node_0140       	60.998275	0.003846	                	;				
 node_0141       	60.908467	0.003846	                	;				
 node_0142       	60.579501	0.003846	                	;				
 node_0143       	56.991076	0.003846	                	;				
 node_0144       	56.965719	0.003846	                	;				
 node_0145       	52.536542	0.003846	                	;				
 node_0146       	52.680429	0.003846	                	;				
 node_0147       	52.468161	0.003846	                	;				
 node_0148       	45.958939	0.003846	                	;				
 node_0149       	46.739813	0.003846	                	;				
 node_0150       	43.380909	0.003846	                	;				
 node_0151       	45.500229	0.003846	                	;				
 node_0152       	44.809588	0.003846	                	;				
 node_0153       	46.048533	0.003846	                	;				
 node_0154       	45.229945	0.003846	                	;				
 node_0155       	47.419518	0.003846	                	;				
 node_0182       	53.731072	0.003846	                	;				
 node_0183       	56.277871	0.003846	                	;				
 node_0184       	57.025992	0.003846	                	;				
 node_0185       	56.279682	0.003846	                	;				
 node_0186       	60.912646	0.003846	                	;				
 node_0187       	62.121944	0.003846	                	;				
 node_0188       	54.403447	0.003846	                	;				
 node_0230       	41.660344	0.003846	                	;				
 node_0231       	46.462348	0.003846	                	;				
 node_0241       	54.150875	0.003846	                	;				
 node_0242       	54.134238	0.003846	                	;				
 node_0243       	45.346466	0.003846	                	;				
 node_0244       	44.455416	0.003846	                	;				
 node_0252       	57.831969	0.003846	                	;				
 node_0253       	61.248613	0.003846	                	;				
 node_0254       	60.520629	0.003846	                	;				
 node_0255       	57.36	0.003846	                	;				
 node_0256       	61.390359	0.003846	                	;				
 node_0287       	42.259709	0.003846	                	;				
 node_0288       	44.11	0.003846	                	;				
 node_0289       	36.262616	0.003846	                	;				
 node_0290       	41.771256	0.003846	                	;				
 node_0296       	42.249713	0.003846	                	;				
 node_0297       	24.94329	0.003846	                	;				
 node_0298       	24.913064	0.003846	                	;				
 node_0299       	24.878676	0.003846	                	;				
 node_0300       	24.870931	0.003846	                	;				
 node_0303       	54.432578	0.003846	                	;				
 node_0304       	54.519856	0.003846	                	;				
 node_0305       	54.485301	0.003846	                	;				
 node_0306       	55.14112	0.003846	                	;				
 node_0310       	47.168446	0.003846	                	;				
 node_0312       	42.718187	0.003846	                	;				
 node_0324       	49.88862	0.003846	                	;				
 node_0326       	54.08127	0.003846	                	;				
 node_0327       	24.833353	0.003846	                	;				
 node_0328       	24.906652	0.003846	                	;				
 node_0329       	46.463472	0.003846	                	;				
 node_0339       	53.434956	0.003846	                	;				
 node_0340       	55.664594	0.003846	                	;				
 node_0341       	55.4205	0.003846	                	;				
 node_0358       	15.484285	0.003846	                	;				
 node_0365       	15.069807	0.003846	                	;				
 node_0366       	15.219566	0.003846	                	;				
 node_0367       	15.45764	0.003846	                	;				
 node_0375       	44.545881	0.003846	                	;				
 node_0376       	55.810254	0.003846	                	;				
 node_0410       	59.867804	0.003846	                	;				
 node_0417       	54.558259	0.003846	                	;				
 node_0418       	60.283478	0.003846	                	;				
 node_0419       	60.484849	0.003846	                	;				
 node_0420       	60.519551	0.003846	                	;				
 node_0421       	62.752107	0.003846	                	;				
 node_0422       	59.77467	0.003846	                	;				
 node_0423       	56.052434	0.003846	                	;				
 node_0424       	60.283639	0.003846	                	;				
 node_0425       	60.296494	0.003846	                	;				
 node_0426       	59.311625	0.003846	                	;				
 node_0427       	59.740233	0.003846	                	;				
 node_0429       	61.92	0.003846	                	;				
 node_0430       	62.520893	0.003846	                	;				
 node_0431       	63.090593	0.003846	                	;				
 node_0432       	60.166913	0.003846	                	;				
 node_0433       	62.412439	0.003846	                	;				
 node_0436       	57.635	0.003846	                	;				
 node_0439       	61.039128	0.003846	                	;				
 node_0449       	62.411918	0.003846	                	;				
 node_0450       	57.078703	0.003846	                	;				
 node_0451       	57.210604	0.003846	                	;				
 node_0456       	44.11	0.003846	                	;				
 node_0458       	63.732725	0.003846	                	;				
 node_0461       	60.059186	0.003846	                	;				
 node_0467       	34.914163	0.003846	                	;				
 node_0468       	24.928127	0.003846	                	;				
 node_0471       	53.757905	0.003846	                	;				
 node_0472       	57.887154	0.003846	                	;				
 node_0473       	57.879233	0.003846	                	;				
 node_0475       	55.394295	0.003846	                	;				
 node_0480       	42.390765	0.003846	                	;				
 node_0481       	53.701043	0.003846	                	;				
 node_0484       	59.329312	0.003846	                	;				
 node_0485       	59.09704	0.003846	                	;				
 node_0493       	43.675023	0.003846	                	;				
 node_0494       	42.625671	0.003846	                	;				
 node_0495       	42.715353	0.003846	                	;				
 node_0496       	42.4585	0.003846	                	;				
 node_0498       	44.628517	0.003846	                	;				
 node_0499       	41.436343	0.003846	                	;				
 node_0500       	58.415716	0.003846	                	;				
 node_0501       	56.277743	0.003846	                	;				
 node_0502       	55.02097	0.003846	                	;				
 node_0503       	57.644162	0.003846	                	;				
 node_0504       	60.912556	0.003846	                	;				
 node_0505       	64.249413	0.003846	                	;				
 node_0506       	61.255764	0.003846	                	;				
 node_0507       	60.46334	0.003846	                	;				
 node_0508       	56.777479	0.003846	                	;				
 node_0509       	57.318545	0.003846	                	;				
 node_0510       	59.994479	0.003846	                	;				
 node_0511       	60.17514	0.003846	                	;				
 node_0512       	61.351965	0.003846	                	;				
 node_0513       	58.202588	0.003846	                	;				
 node_0514       	55.179346	0.003846	                	;				
 node_0515       	53.707006	0.003846	                	;				
 node_0516       	54.956427	0.003846	                	;				
 node_0517       	56.970424	0.003846	                	;				
 node_0518       	36.159893	0.003846	                	;				
 node_0519       	36.959336	0.003846	                	;				
 node_0520       	50.108801	0.003846	                	;				
 node_0521       	52.143224	0.003846	                	;				
 node_0522       	51.450006	0.003846	                	;				
 node_0523       	45.443119	0.003846	                	;				
 node_0524       	44.628887	0.003846	                	;				
 node_0525       	43.321575	0.003846	                	;				
 node_0526       	43.626649	0.003846	                	;				
 node_0527       	44.813161	0.003846	                	;				
 node_0528       	47.414228	0.003846	                	;				
 node_0529       	46.405996	0.003846	                	;				
 node_0530       	47.027663	0.003846	                	;				
 node_0531       	47.207401	0.003846	                	;				
 node_0532       	45.618231	0.003846	                	;				
 node_0533       	50.016653	0.003846	                	;				
 node_0534       	49.704139	0.003846	                	;				
 node_0535       	50.158975	0.003846	                	;				
 node_0536       	24.836696	0.003846	                	;				
 node_0537       	20.413496	0.003846	                	;				
 node_0538       	15.638528	0.003846	                	;				
 node_0539       	22.538501	0.003846	                	;				
 node_0540       	55.111792	0.003846	                	;				
 node_0541       	54.542841	0.003846	                	;				
 node_0542       	54.505762	0.003846	                	;				
 node_0543       	54.11	0.003846	                	;				
 node_0544       	15.498585	0.003846	                	;				
 node_0545       	15.13276	0.003846	                	;				
 node_0546       	54.716855	0.003846	                	;				
 node_0548       	41.641251	0.003846	                	;				
 node_0549       	43.427001	0.003846	                	;				
 node_0550       	45.216455	0.003846	                	;				
 node_0551       	45.169881	0.003846	                	;				
 node_0552       	45.75413	0.003846	                	;				
 node_0553       	45.767708	0.003846	                	;				
 node_0554       	43.891926	0.003846	                	;				
 node_0555       	45.956823	0.003846	                	;				
 node_0556       	42.337145	0.003846	                	;				
 node_0557       	43.1317	0.003846	                	;				
 node_0558       	45.991873	0.003846	                	;				
 node_0559       	41.06863	0.003846	                	;				
 node_0560       	42.81616	0.003846	                	;				
 node_0587       	56.441234	0.003846	                	;				
 node_0588       	60.720427	0.003846	                	;				
 node_0656       	56.852417	0.003846	                	;				
 node_0657       	57.880439	0.003846	                	;				
 node_0658       	56.311723	0.003846	                	;				
 node_0659       	52.603975	0.003846	                	;				
 node_0660       	52.23705	0.003846	                	;				
 node_0661       	55.33459	0.003846	                	;				
 node_0662       	51.868562	0.003846	                	;				
 node_0663       	52.488048	0.003846	                	;				
 node_0664       	52.241431	0.003846	                	;				
 node_0665       	52.50187	0.003846	                	;				
 node_0666       	56.874056	0.003846	                	;				
 node_0667       	54.636179	0.003846	                	;				
 node_0684       	57.873024	0.003846	                	;				
 node_0685       	54.600495	0.003846	                	;				
 node_0687       	54.040125	0.003846	                	;				
 node_0689       	57.888278	0.003846	                	;				
 node_0690       	56.281386	0.003846	                	;				
 node_0691       	56.389712	0.003846	                	;				
 node_0692       	50.506686	0.003846	                	;				
 node_0697       	54.43486	0.003846	                	;				
 node_0702       	41.383704	0.003846	                	;				
 node_0707       	54.038609	0.003846	                	;				
 node_0709       	18.527837	0.003846	                	;				
 node_0711       	53.66756	0.003846	                	;				
 node_0712       	54.510244	0.003846	                	;				
 node_0713       	53.749025	0.003846	                	;				
 node_0714       	54.223321	0.003846	                	;				
 node_0715       	54.213819	0.003846	                	;				
 node_0724       	56.993252	0.003846	                	;				
 node_0725       	57.209884	0.003846	                	;				
 node_0726       	54.599166	0.003846	                	;				
 node_0727       	55.363185	0.003846	                	;				
 node_0732       	56.30295	0.003846	                	;				
 node_0733       	57.205262	0.003846	                	;				
 node_0734       	57.211121	0.003846	                	;				
 node_0735       	56.543599	0.003846	                	;				
 node_0736       	54.599083	0.003846	                	;				
 node_0737       	54.082979	0.003846	                	;				
 node_0738       	56.299478	0.003846	                	;				
 node_0740       	56.693184	0.003846	                	;				
 node_0741       	55.149849	0.003846	                	;				
 node_0780       	36.16	0.003846	                	;				
 node_0781       	36.16	0.003846	                	;				
 node_0782       	37.21	0.003846	                	;				
 node_0783       	37.21	0.003846	                	;				
 node_0786       	41.64	0.003846	                	;				
 node_0787       	41.64	0.003846	                	;				
 node_0788       	41.75	0.003846	                	;				
 node_0789       	41.75	0.003846	                	;				
 node_0790       	43.68	0.003846	                	;				
 node_0791       	43.68	0.003846	                	;				
 node_0792       	44.7	0.003846	                	;				
 node_0793       	44.7	0.003846	                	;				
 node_0794       	36.96	0.003846	                	;				
 node_0795       	36.96	0.003846	                	;				
 node_0796       	45.64	0.003846	                	;				
 node_0797       	45.64	0.003846	                	;				
 node_0798       	45.48	0.003846	                	;				
 node_0799       	45.48	0.003846	                	;				
 node_0800       	41.64	0.003846	                	;				
 node_0801       	41.64	0.003846	                	;				
 node_0802       	50.16	0.003846	                	;				
 node_0803       	50.16	0.003846	                	;				
 node_0804       	50.11	0.003846	                	;				
 node_0805       	50.11	0.003846	                	;				
 node_0806       	51.24	0.003846	                	;				
 node_0807       	51.24	0.003846	                	;				
 node_0808       	52.17	0.003846	                	;				
 node_0809       	52.17	0.003846	                	;				
 node_0810       	43.26	0.003846	                	;				
 node_0811       	43.26	0.003846	                	;				
 node_0812       	43.35	0.003846	                	;				
 node_0813       	43.35	0.003846	                	;				
 node_0814       	44.43	0.003846	                	;				
 node_0815       	44.43	0.003846	                	;				
 node_0816       	44.87	0.003846	                	;				
 node_0817       	44.87	0.003846	                	;				
 node_0818       	43.58	0.003846	                	;				
 node_0819       	43.58	0.003846	                	;				
 node_0820       	44.73	0.003846	                	;				
 node_0821       	44.73	0.003846	                	;				
 node_0822       	47.2	0.003846	                	;				
 node_0823       	47.2	0.003846	                	;				
 node_0824       	47.43	0.003846	                	;				
 node_0825       	47.43	0.003846	                	;				
 node_0826       	38.86	0.003846	                	;				
 node_0827       	38.86	0.003846	                	;				
 node_0828       	39.03	0.003846	                	;				
 node_0829       	39.03	0.003846	                	;				
 node_0830       	14.8	0.003846	                	;				
 node_0831       	14.8	0.003846	                	;				
 node_0832       	15.27	0.003846	                	;				
 node_0833       	15.27	0.003846	                	;				
 node_0834       	18.51	0.003846	                	;				
 node_0835       	18.51	0.003846	                	;				
 node_0836       	15.17	0.003846	                	;				
 node_0837       	15.17	0.003846	                	;				
 node_0838       	15.39	0.003846	                	;				
 node_0839       	15.39	0.003846	                	;				
 node_0840       	15.45	0.003846	                	;				
 node_0841       	15.45	0.003846	                	;				
 node_0842       	15.63	0.003846	                	;				
 node_0843       	15.63	0.003846	                	;				
 node_0844       	28.09	0.003846	                	;				
 node_0845       	28.09	0.003846	                	;				
 node_0846       	46.64	0.003846	                	;				
 node_0847       	46.64	0.003846	                	;				
 node_0848       	46.82	0.003846	                	;				
 node_0849       	46.82	0.003846	                	;				
 node_0850       	47.06	0.003846	                	;				
 node_0851       	47.06	0.003846	                	;				
 node_0852       	45.62	0.003846	                	;				
 node_0853       	45.62	0.003846	                	;				
 node_0854       	44.04	0.003846	                	;				
 node_0855       	44.04	0.003846	                	;				
 node_0856       	52.08	0.003846	                	;				
 node_0857       	52.08	0.003846	                	;				
 node_0858       	49.2	0.003846	                	;				
 node_0859       	49.2	0.003846	                	;				
 node_0860       	49.96	0.003846	                	;				
 node_0861       	49.96	0.003846	                	;				
 node_0862       	49.7	0.003846	                	;				
 node_0863       	49.7	0.003846	                	;				
 node_0864       	50.03	0.003846	                	;				
 node_0865       	50.03	0.003846	                	;				
 node_0866       	50.02	0.003846	                	;				
 node_0867       	50.02	0.003846	                	;				
 node_0868       	44.63	0.003846	                	;				
 node_0869       	44.63	0.003846	                	;				
 node_0870       	51.56	0.003846	                	;				
 node_0871       	51.56	0.003846	                	;				
 node_0872       	51.45	0.003846	                	;				
 node_0873       	51.45	0.003846	                	;				
 node_0874       	51.3	0.003846	                	;				
 node_0875       	51.3	0.003846	                	;				
 node_0876       	42.72	0.003846	                	;				
 node_0877       	42.72	0.003846	                	;				
 node_0878       	42.62	0.003846	                	;				
 node_0879       	42.62	0.003846	                	;				
 node_0880       	42.19	0.003846	                	;				
 node_0881       	42.19	0.003846	                	;				
 node_0882       	42.13	0.003846	                	;				
 node_0883       	42.13	0.003846	                	;				
 node_0884       	42.64	0.003846	                	;				
 node_0885       	42.64	0.003846	                	;				
 node_0886       	41.51	0.003846	                	;				
 node_0887       	41.51	0.003846	                	;				
 node_0888       	42.31	0.003846	                	;				
 node_0889       	42.31	0.003846	                	;				
 node_0890       	42.31	0.003846	                	;				
 node_0891       	42.31	0.003846	                	;				
 node_0892       	40.37	0.003846	                	;				
 node_0893       	40.37	0.003846	                	;				
 node_0894       	24.82	0.003846	                	;				
 node_0895       	24.82	0.003846	                	;				
 node_0896       	24.8	0.003846	                	;				
 node_0897       	24.8	0.003846	                	;				
 node_0898       	24.83	0.003846	                	;				
 node_0899       	24.83	0.003846	                	;				
 node_0900       	24.9	0.003846	                	;				
 node_0901       	24.9	0.003846	                	;				
 node_0902       	24.81	0.003846	                	;				
 node_0903       	24.81	0.003846	                	;				
 node_0904       	39.82	0.003846	                	;				
 node_0905       	39.82	0.003846	                	;				
 node_0906       	39.93	0.003846	                	;				
 node_0907       	39.93	0.003846	                	;				
 node_1002       	56.42	0.003846	                	;				
 node_1003       	56.42	0.003846	                	;				
 node_1004       	55.35	0.003846	                	;				
 node_1005       	55.35	0.003846	                	;				
 node_1014       	54.5	0.003846	                	;				
 node_1015       	54.5	0.003846	                	;				
 node_1016       	54.56	0.003846	                	;				
 node_1017       	54.56	0.003846	                	;				
 node_1018       	54.5	0.003846	                	;				
 node_1019       	54.5	0.003846	                	;				
 node_1020       	54.52	0.003846	                	;				
 node_1021       	54.52	0.003846	                	;				
 node_1022       	54.21	0.003846	                	;				
 node_1023       	54.21	0.003846	                	;				
 node_1024       	54.2	0.003846	                	;				
 node_1025       	54.2	0.003846	                	;				
 node_1026       	54.17	0.003846	                	;				
 node_1027       	54.17	0.003846	                	;				
 node_1028       	54.11	0.003846	                	;				
 node_1029       	54.11	0.003846	                	;				
 node_1032       	43.68	0.003846	                	;				
 node_1033       	43.68	0.003846	                	;				
 node_1034       	42.46	0.003846	                	;				
 node_1035       	42.46	0.003846	                	;				
 node_1036       	42.9	0.003846	                	;				
 node_1037       	42.9	0.003846	                	;				
 node_1038       	43.41	0.003846	                	;				
 node_1039       	43.41	0.003846	                	;				
 node_1040       	45.17	0.003846	                	;				
 node_1041       	45.17	0.003846	                	;				
 node_1042       	45.4	0.003846	                	;				
 node_1043       	45.4	0.003846	                	;				
 node_1044       	45.72	0.003846	                	;				
 node_1045       	45.72	0.003846	                	;				
 node_1046       	44.36	0.003846	                	;				
 node_1047       	44.36	0.003846	                	;				
 node_1048       	44.51	0.003846	                	;				
 node_1049       	44.51	0.003846	                	;				
 node_1050       	44.15	0.003846	                	;				
 node_1051       	44.15	0.003846	                	;				
 node_1052       	42.81	0.003846	                	;				
 node_1053       	42.81	0.003846	                	;				
 node_1054       	45.21	0.003846	                	;				
 node_1055       	45.21	0.003846	                	;				
 node_1056       	45.21	0.003846	                	;				
 node_1057       	45.21	0.003846	                	;				
 node_1058       	45.16	0.003846	                	;				
 node_1059       	45.16	0.003846	                	;				
 node_1060       	45.18	0.003846	                	;				
 node_1061       	45.18	0.003846	                	;				
 node_1062       	45.16	0.003846	                	;				
 node_1063       	45.16	0.003846	                	;				
 node_1064       	45.23	0.003846	                	;				
 node_1065       	45.23	0.003846	                	;				
 node_1066       	45.33	0.003846	                	;				
 node_1067       	45.33	0.003846	                	;				
 node_1068       	42.38	0.003846	                	;				
 node_1069       	42.38	0.003846	                	;				
 node_1070       	41.07	0.003846	                	;				
 node_1071       	41.07	0.003846	                	;				
 node_1072       	41.15	0.003846	                	;				
 node_1073       	41.15	0.003846	                	;				
 node_1074       	44.91	0.003846	                	;				
 node_1075       	44.91	0.003846	                	;				
 node_1076       	45.18	0.003846	                	;				
 node_1077       	45.18	0.003846	                	;				
 node_1078       	44.52	0.003846	                	;				
 node_1079       	44.52	0.003846	                	;				
 node_1080       	45.36	0.003846	                	;				
 node_1081       	45.36	0.003846	                	;				
 node_1082       	45.32	0.003846	                	;				
 node_1083       	45.32	0.003846	                	;				
 node_1084       	45.76	0.003846	                	;				
 node_1085       	45.76	0.003846	                	;				
 node_1086       	45.08	0.003846	                	;				
 node_1087       	45.08	0.003846	                	;				
 node_1088       	44.81	0.003846	                	;				
 node_1089       	44.81	0.003846	                	;				
 node_1090       	45.38	0.003846	                	;				
 node_1091       	45.38	0.003846	                	;				
 node_1092       	43.89	0.003846	                	;				
 node_1093       	43.89	0.003846	                	;				
 node_1094       	43.52	0.003846	                	;				
 node_1095       	43.52	0.003846	                	;				
 node_1096       	44.4	0.003846	                	;				
 node_1097       	44.4	0.003846	                	;				
 node_1144       	56.49	0.003846	                	;				
 node_1145       	56.49	0.003846	                	;				
 node_1146       	60.52	0.003846	                	;				
 node_1147       	60.52	0.003846	                	;				
 node_1148       	61.08	0.003846	                	;				
 node_1149       	58.25	0.003846	                	;				
 node_1150       	58.25	0	                	;				
 node_1151       	58.86	0.003846	                	;				
 node_1152       	58.86	0.003846	                	;				
 node_1153       	60	0.003846	                	;				
 node_1154       	60	0.003846	                	;				
 node_1155       	59.69	0.003846	                	;				
 node_1156       	59.69	0.003846	                	;				
 node_1157       	61.33	0.003846	                	;				
 node_1158       	61.33	0.003846	                	;				