[TITLE]
"BWFLnet, modified version of the network published in "								
"Waldron, A., Pecci, F., & Stoianov, I. (2019). BWFLnet + data. Mendeley Data. https://doi.org/10.17632/srt4vr5k38.2"								

[JUNCTIONS]
;ID              	Elev        	Demand      	Pattern         
 node_0001       	37.1254     	1           	DEM_PATT_1      	;				
 node_0002       	37.12       	1           	DEM_PATT_2      	;				
 node_0003       	37.12       	1           	DEM_PATT_3      	;				
 node_0010       	36.57       	1           	DEM_PATT_10     	;				
 node_0011       	36.57       	1           	DEM_PATT_11     	;				
 node_0029       	42.3876     	1           	DEM_PATT_29     	;				
 node_0030       	28.8481     	1           	DEM_PATT_30     	;				
 node_0031       	28.45       	1           	DEM_PATT_31     	;				
 node_0032       	28.45       	1           	DEM_PATT_32     	;				
 node_0033       	42.2338     	1           	DEM_PATT_33     	;				
 node_0034       	42.21       	1           	DEM_PATT_34     	;				
 node_0035       	42.21       	1           	DEM_PATT_35     	;				
 node_0036       	42.21       	1           	DEM_PATT_36     	;				
 node_0037       	42.21       	1           	DEM_PATT_37     	;				
 node_0038       	37.4726     	1           	DEM_PATT_38     	;				
 node_0039       	37.44       	1           	DEM_PATT_39     	;				
 node_0040       	37.44       	1           	DEM_PATT_40     	;				
 node_0041       	42.3049     	1           	DEM_PATT_41     	;				
 node_0042       	42.44       	1           	DEM_PATT_42     	;				
 node_0043       	42.44       	1           	DEM_PATT_43     	;				
 node_0046       	45.35       	1           	DEM_PATT_46     	;				
 node_0047       	45.35       	1           	DEM_PATT_47     	;				
 node_0051       	45.43       	1           	DEM_PATT_51     	;				
 node_0052       	45.43       	1           	DEM_PATT_52     	;				
 node_0056       	45.3955     	1           	DEM_PATT_56     	;				
 node_0064       	14.73       	1           	DEM_PATT_64     	;				
 node_0065       	14.73       	1           	DEM_PATT_65     	;				
 node_0068       	14.83       	1           	DEM_PATT_68     	;				
 node_0069       	14.83       	1           	DEM_PATT_69     	;				
 node_0070       	14.9345     	1           	DEM_PATT_70     	;				
 node_0079       	43.43       	1           	DEM_PATT_79     	;				
 node_0080       	43.43       	1           	DEM_PATT_80     	;				
 node_0081       	44.47       	1           	DEM_PATT_81     	;				
 node_0082       	44.47       	1           	DEM_PATT_82     	;				
 node_0083       	44.5036     	1           	DEM_PATT_83     	;				
 node_0084       	44.61       	1           	DEM_PATT_84     	;				
 node_0085       	44.61       	1           	DEM_PATT_85     	;				
 node_0087       	45.6136     	1           	DEM_PATT_86     	;				
 node_0088       	45.67       	1           	DEM_PATT_87     	;				
 node_0089       	45.67       	1           	DEM_PATT_88     	;				
 node_0090       	16.7907     	1           	DEM_PATT_89     	;				
 node_0096       	25.4946     	1           	DEM_PATT_93     	;				
 node_0097       	45.9        	1           	DEM_PATT_94     	;				
 node_0098       	45.9        	1           	DEM_PATT_95     	;				
 node_0099       	45.24       	1           	DEM_PATT_96     	;				
 node_0100       	45.24       	1           	DEM_PATT_97     	;				
 node_0101       	37.1582     	1           	DEM_PATT_98     	;				
 node_0102       	24.85       	1           	DEM_PATT_99     	;				
 node_0103       	24.85       	1           	DEM_PATT_100    	;				
 node_0104       	45.3284     	1           	DEM_PATT_101    	;				
 node_0107       	25.2192     	1           	DEM_PATT_104    	;				
 node_0109       	45.64       	1           	DEM_PATT_106    	;				
 node_0110       	45.64       	1           	DEM_PATT_107    	;				
 node_0111       	45.3795     	1           	DEM_PATT_108    	;				
 node_0112       	45.38       	1           	DEM_PATT_109    	;				
 node_0113       	45.38       	1           	DEM_PATT_110    	;				
 node_0114       	24.96       	1           	DEM_PATT_111    	;				
 node_0115       	24.96       	1           	DEM_PATT_112    	;				
 node_0116       	25.2997     	1           	DEM_PATT_113    	;				
 node_0117       	25.1        	1           	DEM_PATT_114    	;				
 node_0118       	25.1        	1           	DEM_PATT_115    	;				
 node_0119       	25.38       	1           	DEM_PATT_116    	;				
 node_0120       	25.38       	1           	DEM_PATT_117    	;				
 node_0121       	25.43       	1           	DEM_PATT_118    	;				
 node_0122       	25.43       	1           	DEM_PATT_119    	;				
 node_0123       	25.56       	1           	DEM_PATT_120    	;				
 node_0124       	25.56       	1           	DEM_PATT_121    	;				
 node_0125       	26.4        	1           	DEM_PATT_122    	;				
 node_0126       	26.4        	1           	DEM_PATT_123    	;				
 node_0127       	23.551      	1           	DEM_PATT_124    	;				
 node_0128       	23.551      	1           	DEM_PATT_125    	;				
 node_0131       	15.44       	1           	DEM_PATT_128    	;				
 node_0132       	15.44       	1           	DEM_PATT_129    	;				
 node_0134       	27.3081     	1           	DEM_PATT_131    	;				
 node_0138       	42          	1           	DEM_PATT_134    	;				
 node_0139       	42          	1           	DEM_PATT_135    	;				
 node_0140       	27.671      	1           	DEM_PATT_136    	;				
 node_0141       	27.67       	1           	DEM_PATT_137    	;				
 node_0144       	15.8703     	1           	DEM_PATT_140    	;				
 node_0145       	16.035      	1           	DEM_PATT_141    	;				
 node_0146       	27.04       	1           	DEM_PATT_142    	;				
 node_0147       	27.04       	1           	DEM_PATT_143    	;				
 node_0152       	15.66       	1           	DEM_PATT_147    	;				
 node_0153       	15.66       	1           	DEM_PATT_148    	;				
 node_0154       	28.1212     	1           	DEM_PATT_149    	;				
 node_0155       	40.1        	1           	DEM_PATT_150    	;				
 node_0156       	40.1        	1           	DEM_PATT_151    	;				
 node_0157       	29.13       	1           	DEM_PATT_152    	;				
 node_0158       	29.13       	1           	DEM_PATT_153    	;				
 node_0159       	40.2148     	1           	DEM_PATT_154    	;				
 node_0160       	15.9176     	1           	DEM_PATT_155    	;				
 node_0161       	27.8295     	1           	DEM_PATT_156    	;				
 node_0162       	16.19       	1           	DEM_PATT_157    	;				
 node_0163       	16.19       	1           	DEM_PATT_158    	;				
 node_0164       	40.23       	1           	DEM_PATT_159    	;				
 node_0165       	40.23       	1           	DEM_PATT_160    	;				
 node_0166       	15.98       	1           	DEM_PATT_161    	;				
 node_0167       	15.98       	1           	DEM_PATT_162    	;				
 node_0168       	27.4613     	1           	DEM_PATT_163    	;				
 node_0169       	27.42       	1           	DEM_PATT_164    	;				
 node_0170       	27.42       	1           	DEM_PATT_165    	;				
 node_0171       	27.42       	1           	DEM_PATT_166    	;				
 node_0172       	27.42       	1           	DEM_PATT_167    	;				
 node_0173       	30.0899     	1           	DEM_PATT_168    	;				
 node_0174       	30.24       	1           	DEM_PATT_169    	;				
 node_0175       	30.24       	1           	DEM_PATT_170    	;				
 node_0179       	50.54       	1           	DEM_PATT_174    	;				
 node_0180       	50.54       	1           	DEM_PATT_175    	;				
 node_0186       	50.5071     	1           	DEM_PATT_181    	;				
 node_0192       	50.11       	1           	DEM_PATT_187    	;				
 node_0193       	50.11       	1           	DEM_PATT_188    	;				
 node_0194       	50.0968     	1           	DEM_PATT_189    	;				
 node_0195       	42.0761     	1           	DEM_PATT_190    	;				
 node_0196       	44.4        	1           	DEM_PATT_191    	;				
 node_0197       	44.4        	1           	DEM_PATT_192    	;				
 node_0198       	46.1        	1           	DEM_PATT_193    	;				
 node_0199       	46.1        	1           	DEM_PATT_194    	;				
 node_0200       	46.0899     	1           	DEM_PATT_195    	;				
 node_0201       	42.757      	1           	DEM_PATT_196    	;				
 node_0202       	50.05       	1           	DEM_PATT_197    	;				
 node_0203       	50.05       	1           	DEM_PATT_198    	;				
 node_0204       	50.21       	1           	DEM_PATT_199    	;				
 node_0205       	50.21       	1           	DEM_PATT_200    	;				
 node_0206       	50.0453     	1           	DEM_PATT_201    	;				
 node_0209       	50.2098     	1           	DEM_PATT_204    	;				
 node_0213       	50.26       	1           	DEM_PATT_208    	;				
 node_0214       	50.26       	1           	DEM_PATT_209    	;				
 node_0217       	50.1506     	1           	DEM_PATT_212    	;				
 node_0218       	50.18       	1           	DEM_PATT_213    	;				
 node_0219       	50.18       	1           	DEM_PATT_214    	;				
 node_0222       	49.75       	1           	DEM_PATT_217    	;				
 node_0223       	49.75       	1           	DEM_PATT_218    	;				
 node_0226       	49.7224     	1           	DEM_PATT_221    	;				
 node_0229       	47.35       	1           	DEM_PATT_224    	;				
 node_0230       	47.35       	1           	DEM_PATT_225    	;				
 node_0231       	47.2606     	1           	DEM_PATT_226    	;				
 node_0237       	46.84       	1           	DEM_PATT_232    	;				
 node_0238       	46.84       	1           	DEM_PATT_233    	;				
 node_0239       	46.8184     	1           	DEM_PATT_234    	;				
 node_0245       	44.4687     	1           	DEM_PATT_240    	;				
 node_0262       	34.7201     	1           	DEM_PATT_253    	;				
 node_0288       	46.0505     	1           	DEM_PATT_270    	;				
 node_0292       	46.0125     	1           	DEM_PATT_274    	;				
 node_0293       	45.95       	1           	DEM_PATT_275    	;				
 node_0294       	45.95       	1           	DEM_PATT_276    	;				
 node_0295       	46.21       	1           	DEM_PATT_277    	;				
 node_0296       	46.21       	1           	DEM_PATT_278    	;				
 node_0297       	46.1861     	1           	DEM_PATT_279    	;				
 node_0299       	46.05       	1           	DEM_PATT_281    	;				
 node_0300       	46.05       	1           	DEM_PATT_282    	;				
 node_0303       	50.8676     	1           	DEM_PATT_285    	;				
 node_0304       	46.0896     	1           	DEM_PATT_286    	;				
 node_0305       	35.73       	1           	DEM_PATT_287    	;				
 node_0306       	35.73       	1           	DEM_PATT_288    	;				
 node_0308       	50.93       	1           	DEM_PATT_290    	;				
 node_0309       	50.93       	1           	DEM_PATT_291    	;				
 node_0310       	46.51       	1           	DEM_PATT_292    	;				
 node_0311       	46.51       	1           	DEM_PATT_293    	;				
 node_0312       	46.549      	1           	DEM_PATT_294    	;				
 node_0315       	36.32       	1           	DEM_PATT_295    	;				
 node_0316       	36.32       	1           	DEM_PATT_296    	;				
 node_0319       	36.32       	1           	DEM_PATT_298    	;				
 node_0320       	36.32       	1           	DEM_PATT_299    	;				
 node_0331       	46.9071     	1           	DEM_PATT_305    	;				
 node_0355       	47.74       	1           	DEM_PATT_328    	;				
 node_0356       	47.74       	1           	DEM_PATT_329    	;				
 node_0358       	50.9107     	1           	DEM_PATT_331    	;				
 node_0359       	50.89       	1           	DEM_PATT_332    	;				
 node_0360       	50.89       	1           	DEM_PATT_333    	;				
 node_0361       	50.8617     	1           	DEM_PATT_334    	;				
 node_0362       	50.92       	1           	DEM_PATT_335    	;				
 node_0363       	50.92       	1           	DEM_PATT_336    	;				
 node_0364       	47.74       	1           	DEM_PATT_337    	;				
 node_0365       	47.74       	1           	DEM_PATT_338    	;				
 node_0371       	50.94       	1           	DEM_PATT_342    	;				
 node_0372       	50.94       	1           	DEM_PATT_343    	;				
 node_0373       	50.927      	1           	DEM_PATT_344    	;				
 node_0390       	37.7351     	1           	DEM_PATT_360    	;				
 node_0391       	50.8938     	1           	DEM_PATT_361    	;				
 node_0398       	50.87       	1           	DEM_PATT_368    	;				
 node_0399       	50.87       	1           	DEM_PATT_369    	;				
 node_0417       	50.5461     	1           	DEM_PATT_387    	;				
 node_0420       	50.58       	1           	DEM_PATT_390    	;				
 node_0421       	50.58       	1           	DEM_PATT_391    	;				
 node_0424       	49.2084     	1           	DEM_PATT_393    	;				
 node_0425       	49.1901     	1           	DEM_PATT_394    	;				
 node_0427       	49.48       	1           	DEM_PATT_396    	;				
 node_0428       	49.48       	1           	DEM_PATT_397    	;				
 node_0429       	49.48       	1           	DEM_PATT_398    	;				
 node_0430       	49.48       	1           	DEM_PATT_399    	;				
 node_0454       	39.24       	1           	DEM_PATT_421    	;				
 node_0455       	39.24       	1           	DEM_PATT_422    	;				
 node_0460       	73.702      	1           	DEM_PATT_427    	;				
 node_0465       	73.6146     	1           	DEM_PATT_430    	;				
 node_0466       	73.75       	1           	DEM_PATT_431    	;				
 node_0467       	73.75       	1           	DEM_PATT_432    	;				
 node_0473       	39.5514     	1           	DEM_PATT_438    	;				
 node_0474       	39.7        	1           	DEM_PATT_439    	;				
 node_0475       	39.54       	1           	DEM_PATT_440    	;				
 node_0476       	39.54       	1           	DEM_PATT_441    	;				
 node_0477       	40.01       	1           	DEM_PATT_442    	;				
 node_0478       	40.01       	1           	DEM_PATT_443    	;				
 node_0479       	40.16       	1           	DEM_PATT_444    	;				
 node_0480       	40.16       	1           	DEM_PATT_445    	;				
 node_0481       	40.16       	1           	DEM_PATT_446    	;				
 node_0482       	40.16       	1           	DEM_PATT_447    	;				
 node_0483       	41.75       	1           	DEM_PATT_448    	;				
 node_0484       	41.75       	1           	DEM_PATT_449    	;				
 node_0485       	40.6        	1           	DEM_PATT_450    	;				
 node_0486       	41.7181     	1           	DEM_PATT_451    	;				
 node_0487       	74.39       	1           	DEM_PATT_452    	;				
 node_0489       	41.48       	1           	DEM_PATT_454    	;				
 node_0490       	41.48       	1           	DEM_PATT_455    	;				
 node_0491       	41.4663     	1           	DEM_PATT_456    	;				
 node_0492       	41.48       	1           	DEM_PATT_457    	;				
 node_0493       	41.48       	1           	DEM_PATT_458    	;				
 node_0494       	41.48       	1           	DEM_PATT_459    	;				
 node_0495       	41.7219     	1           	DEM_PATT_460    	;				
 node_0496       	41.76       	1           	DEM_PATT_461    	;				
 node_0497       	41.76       	1           	DEM_PATT_462    	;				
 node_0498       	41.71       	1           	DEM_PATT_463    	;				
 node_0499       	41.71       	1           	DEM_PATT_464    	;				
 node_0500       	41.6838     	1           	DEM_PATT_465    	;				
 node_0503       	51.5803     	1           	DEM_PATT_466    	;				
 node_0504       	51.71       	1           	DEM_PATT_467    	;				
 node_0505       	51.71       	1           	DEM_PATT_468    	;				
 node_0506       	51.71       	1           	DEM_PATT_469    	;				
 node_0507       	41.56       	1           	DEM_PATT_470    	;				
 node_0511       	44.202      	1           	DEM_PATT_472    	;				
 node_0512       	44.19       	1           	DEM_PATT_473    	;				
 node_0513       	44.19       	1           	DEM_PATT_474    	;				
 node_0514       	41.95       	1           	DEM_PATT_475    	;				
 node_0515       	41.95       	1           	DEM_PATT_476    	;				
 node_0516       	41.96       	1           	DEM_PATT_477    	;				
 node_0517       	41.9413     	1           	DEM_PATT_478    	;				
 node_0524       	42.01       	1           	DEM_PATT_483    	;				
 node_0525       	42.01       	1           	DEM_PATT_484    	;				
 node_0527       	41.5409     	1           	DEM_PATT_486    	;				
 node_0529       	41.59       	1           	DEM_PATT_488    	;				
 node_0530       	41.59       	1           	DEM_PATT_489    	;				
 node_0558       	52.4554     	1           	DEM_PATT_504    	;				
 node_0576       	42.7789     	1           	DEM_PATT_519    	;				
 node_0577       	42.8        	1           	DEM_PATT_520    	;				
 node_0578       	42.8        	1           	DEM_PATT_521    	;				
 node_0593       	40.8551     	1           	DEM_PATT_535    	;				
 node_0594       	40.85       	1           	DEM_PATT_536    	;				
 node_0595       	40.85       	1           	DEM_PATT_537    	;				
 node_0596       	42.5        	1           	DEM_PATT_538    	;				
 node_0597       	42.5        	1           	DEM_PATT_539    	;				
 node_0598       	52.94       	1           	DEM_PATT_540    	;				
 node_0599       	52.94       	1           	DEM_PATT_541    	;				
 node_0600       	52.9459     	1           	DEM_PATT_542    	;				
 node_0601       	42.4799     	1           	DEM_PATT_543    	;				
 node_0602       	52.999      	1           	DEM_PATT_544    	;				
 node_0608       	53.021      	1           	DEM_PATT_545    	;				
 node_0610       	53.01       	1           	DEM_PATT_547    	;				
 node_0611       	53.01       	1           	DEM_PATT_548    	;				
 node_0612       	53.01       	1           	DEM_PATT_549    	;				
 node_0613       	53.01       	1           	DEM_PATT_550    	;				
 node_0614       	53.0214     	1           	DEM_PATT_551    	;				
 node_0618       	53.0479     	1           	DEM_PATT_552    	;				
 node_0619       	53.09       	1           	DEM_PATT_553    	;				
 node_0620       	53.09       	1           	DEM_PATT_554    	;				
 node_0621       	53.09       	1           	DEM_PATT_555    	;				
 node_0622       	53.09       	1           	DEM_PATT_556    	;				
 node_0623       	53.0457     	1           	DEM_PATT_557    	;				
 node_0624       	40.93       	1           	DEM_PATT_558    	;				
 node_0625       	40.93       	1           	DEM_PATT_559    	;				
 node_0635       	41.187      	1           	DEM_PATT_569    	;				
 node_0637       	41.08       	1           	DEM_PATT_571    	;				
 node_0638       	41.2484     	1           	DEM_PATT_572    	;				
 node_0639       	41.22       	1           	DEM_PATT_573    	;				
 node_0640       	42.3179     	1           	DEM_PATT_574    	;				
 node_0646       	42.36       	1           	DEM_PATT_580    	;				
 node_0647       	42.36       	1           	DEM_PATT_581    	;				
 node_0648       	42.515      	1           	DEM_PATT_582    	;				
 node_0653       	42.3774     	1           	DEM_PATT_587    	;				
 node_0654       	53.7357     	1           	DEM_PATT_588    	;				
 node_0660       	53.7314     	1           	DEM_PATT_594    	;				
 node_0661       	53.73       	1           	DEM_PATT_595    	;				
 node_0662       	53.73       	1           	DEM_PATT_596    	;				
 node_0663       	53.733      	1           	DEM_PATT_597    	;				
 node_0664       	53.73       	1           	DEM_PATT_598    	;				
 node_0665       	53.73       	1           	DEM_PATT_599    	;				
 node_0666       	53.7315     	1           	DEM_PATT_600    	;				
 node_0667       	53.7763     	1           	DEM_PATT_601    	;				
 node_0668       	53.7899     	1           	DEM_PATT_602    	;				
 node_0669       	53.8        	1           	DEM_PATT_603    	;				
 node_0670       	53.8        	1           	DEM_PATT_604    	;				
 node_0672       	53.8        	1           	DEM_PATT_606    	;				
 node_0673       	53.8        	1           	DEM_PATT_607    	;				
 node_0674       	53.8        	1           	DEM_PATT_608    	;				
 node_0675       	53.8        	1           	DEM_PATT_609    	;				
 node_0676       	53.8033     	1           	DEM_PATT_610    	;				
 node_0677       	53.87       	1           	DEM_PATT_611    	;				
 node_0678       	53.87       	1           	DEM_PATT_612    	;				
 node_0679       	53.8437     	1           	DEM_PATT_613    	;				
 node_0680       	53.8176     	1           	DEM_PATT_614    	;				
 node_0681       	53.94       	1           	DEM_PATT_615    	;				
 node_0682       	53.94       	1           	DEM_PATT_616    	;				
 node_0683       	54.761      	1           	DEM_PATT_617    	;				
 node_0685       	53.9516     	1           	DEM_PATT_619    	;				
 node_0695       	44.63       	1           	DEM_PATT_627    	;				
 node_0696       	44.63       	1           	DEM_PATT_628    	;				
 node_0698       	44.6189     	1           	DEM_PATT_630    	;				
 node_0712       	42.5628     	1           	DEM_PATT_642    	;				
 node_0716       	42.5        	1           	DEM_PATT_646    	;				
 node_0717       	42.5        	1           	DEM_PATT_647    	;				
 node_0718       	42.5096     	1           	DEM_PATT_648    	;				
 node_0728       	42.1494     	1           	DEM_PATT_657    	;				
 node_0739       	44.87       	1           	DEM_PATT_668    	;				
 node_0743       	54.8514     	1           	DEM_PATT_669    	;				
 node_0747       	44.4429     	1           	DEM_PATT_671    	;				
 node_0753       	44.45       	1           	DEM_PATT_677    	;				
 node_0754       	44.45       	1           	DEM_PATT_678    	;				
 node_0757       	55.05       	1           	DEM_PATT_681    	;				
 node_0758       	55.05       	1           	DEM_PATT_682    	;				
 node_0759       	45.06       	1           	DEM_PATT_683    	;				
 node_0760       	45.06       	1           	DEM_PATT_684    	;				
 node_0761       	45.1295     	1           	DEM_PATT_685    	;				
 node_0766       	55.1021     	1           	DEM_PATT_688    	;				
 node_0767       	55.1        	1           	DEM_PATT_689    	;				
 node_0768       	55.1        	1           	DEM_PATT_690    	;				
 node_0769       	44.0546     	1           	DEM_PATT_691    	;				
 node_0770       	55.1177     	1           	DEM_PATT_692    	;				
 node_0771       	42.9951     	1           	DEM_PATT_693    	;				
 node_0772       	55.14       	1           	DEM_PATT_694    	;				
 node_0773       	55.14       	1           	DEM_PATT_695    	;				
 node_0775       	42.98       	1           	DEM_PATT_696    	;				
 node_0776       	42.98       	1           	DEM_PATT_697    	;				
 node_0779       	55.19       	1           	DEM_PATT_698    	;				
 node_0780       	55.19       	1           	DEM_PATT_699    	;				
 node_0781       	45.14       	1           	DEM_PATT_700    	;				
 node_0782       	45.14       	1           	DEM_PATT_701    	;				
 node_0783       	55.24       	1           	DEM_PATT_702    	;				
 node_0784       	55.24       	1           	DEM_PATT_703    	;				
 node_0785       	44.33       	1           	DEM_PATT_704    	;				
 node_0786       	55.3539     	1           	DEM_PATT_705    	;				
 node_0787       	43.0284     	1           	DEM_PATT_706    	;				
 node_0788       	43.5814     	1           	DEM_PATT_707    	;				
 node_0789       	43.02       	1           	DEM_PATT_708    	;				
 node_0790       	43.02       	1           	DEM_PATT_709    	;				
 node_0791       	43.0292     	1           	DEM_PATT_710    	;				
 node_0808       	43.85       	1           	DEM_PATT_727    	;				
 node_0809       	43.85       	1           	DEM_PATT_728    	;				
 node_0814       	43.859      	1           	DEM_PATT_733    	;				
 node_0822       	43.4428     	1           	DEM_PATT_741    	;				
 node_0823       	44.0537     	1           	DEM_PATT_742    	;				
 node_0824       	44.05       	1           	DEM_PATT_743    	;				
 node_0832       	43.4        	1           	DEM_PATT_749    	;				
 node_0833       	43.4        	1           	DEM_PATT_750    	;				
 node_0842       	44.1        	1           	DEM_PATT_759    	;				
 node_0843       	44.1        	1           	DEM_PATT_760    	;				
 node_0846       	55.9949     	1           	DEM_PATT_763    	;				
 node_0848       	55.9792     	1           	DEM_PATT_765    	;				
 node_0849       	56.01       	1           	DEM_PATT_766    	;				
 node_0850       	56.01       	1           	DEM_PATT_767    	;				
 node_0851       	44.2        	1           	DEM_PATT_768    	;				
 node_0855       	44.3193     	1           	DEM_PATT_772    	;				
 node_0856       	44.15       	1           	DEM_PATT_773    	;				
 node_0857       	44.15       	1           	DEM_PATT_774    	;				
 node_0858       	44.1487     	1           	DEM_PATT_775    	;				
 node_0860       	44.1346     	1           	DEM_PATT_777    	;				
 node_0869       	45.4823     	1           	DEM_PATT_783    	;				
 node_0871       	45.43       	1           	DEM_PATT_785    	;				
 node_0872       	45.43       	1           	DEM_PATT_786    	;				
 node_0873       	45.5        	1           	DEM_PATT_787    	;				
 node_0874       	45.5        	1           	DEM_PATT_788    	;				
 node_0875       	43.6043     	1           	DEM_PATT_789    	;				
 node_0876       	43.6        	1           	DEM_PATT_790    	;				
 node_0877       	43.6        	1           	DEM_PATT_791    	;				
 node_0879       	44.923      	1           	DEM_PATT_793    	;				
 node_0881       	44.93       	1           	DEM_PATT_795    	;				
 node_0882       	44.93       	1           	DEM_PATT_796    	;				
 node_0883       	56.63       	1           	DEM_PATT_797    	;				
 node_0885       	57.2544     	1           	DEM_PATT_799    	;				
 node_0897       	44.7888     	1           	DEM_PATT_808    	;				
 node_0898       	45.2349     	1           	DEM_PATT_809    	;				
 node_0899       	44.81       	1           	DEM_PATT_810    	;				
 node_0900       	44.81       	1           	DEM_PATT_811    	;				
 node_0902       	45.3417     	1           	DEM_PATT_813    	;				
 node_0903       	45.37       	1           	DEM_PATT_814    	;				
 node_0918       	44.1168     	1           	DEM_PATT_829    	;				
 node_0922       	44.11       	1           	DEM_PATT_833    	;				
 node_0923       	44.11       	1           	DEM_PATT_834    	;				
 node_0924       	44.84       	1           	DEM_PATT_835    	;				
 node_0925       	44.84       	1           	DEM_PATT_836    	;				
 node_0926       	44.8614     	1           	DEM_PATT_837    	;				
 node_0931       	44.9        	1           	DEM_PATT_838    	;				
 node_0932       	44.9        	1           	DEM_PATT_839    	;				
 node_0936       	44.6        	1           	DEM_PATT_841    	;				
 node_0937       	44.6        	1           	DEM_PATT_842    	;				
 node_0960       	44.36       	1           	DEM_PATT_861    	;				
 node_0961       	44.36       	1           	DEM_PATT_862    	;				
 node_0962       	44.361      	1           	DEM_PATT_863    	;				
 node_0963       	44.7        	1           	DEM_PATT_864    	;				
 node_0964       	44.7        	1           	DEM_PATT_865    	;				
 node_0965       	44.6979     	1           	DEM_PATT_866    	;				
 node_0966       	44.47       	1           	DEM_PATT_867    	;				
 node_0977       	44.69       	1           	DEM_PATT_878    	;				
 node_0978       	44.69       	1           	DEM_PATT_879    	;				
 node_0985       	44.91       	1           	DEM_PATT_886    	;				
 node_0986       	44.91       	1           	DEM_PATT_887    	;				
 node_0987       	44.7066     	1           	DEM_PATT_888    	;				
 node_0988       	44.71       	1           	DEM_PATT_889    	;				
 node_0989       	44.71       	1           	DEM_PATT_890    	;				
 node_1003       	44.64       	1           	DEM_PATT_904    	;				
 node_1004       	44.64       	1           	DEM_PATT_905    	;				
 node_1009       	44.72       	1           	DEM_PATT_910    	;				
 node_1010       	44.72       	1           	DEM_PATT_911    	;				
 node_1012       	44.7187     	1           	DEM_PATT_912    	;				
 node_1043       	45.75       	1           	DEM_PATT_938    	;				
 node_1044       	45.75       	1           	DEM_PATT_939    	;				
 node_1048       	45.7411     	1           	DEM_PATT_943    	;				
 node_1051       	45.75       	1           	DEM_PATT_946    	;				
 node_1052       	45.75       	1           	DEM_PATT_947    	;				
 node_1057       	45.6761     	1           	DEM_PATT_952    	;				
 node_1059       	45.68       	1           	DEM_PATT_954    	;				
 node_1063       	45.3449     	1           	DEM_PATT_957    	;				
 node_1065       	45.35       	1           	DEM_PATT_959    	;				
 node_1066       	45.35       	1           	DEM_PATT_960    	;				
 node_1067       	45.35       	1           	DEM_PATT_961    	;				
 node_1068       	45.35       	1           	DEM_PATT_962    	;				
 node_1079       	45.4653     	1           	DEM_PATT_969    	;				
 node_1085       	45.49       	1           	DEM_PATT_974    	;				
 node_1086       	45.49       	1           	DEM_PATT_975    	;				
 node_1092       	59.4144     	1           	DEM_PATT_981    	;				
 node_1093       	59.42       	1           	DEM_PATT_982    	;				
 node_1094       	59.42       	1           	DEM_PATT_983    	;				
 node_1095       	45.49       	1           	DEM_PATT_984    	;				
 node_1096       	45.49       	1           	DEM_PATT_985    	;				
 node_1100       	59.3493     	1           	DEM_PATT_987    	;				
 node_1101       	44.1672     	1           	DEM_PATT_988    	;				
 node_1110       	45.5532     	1           	DEM_PATT_997    	;				
 node_1114       	45.56       	1           	DEM_PATT_1001   	;				
 node_1115       	45.56       	1           	DEM_PATT_1002   	;				
 node_1119       	42.543      	1           	DEM_PATT_1006   	;				