; Filename: /home/bradw/workspace/CIVE_70019_70057/data/networks/stkl.inp
; WNTR: 1.0.0
; Created: 2023-10-02 09:46:02
[TITLE]

[JUNCTIONS]
;ID                      Elevation       Demand Pattern                 
 node_0001                  27.965236        0.013145 d_pat                      ;
 node_0003                  51.559723        0.004583 d_pat                      ;
 node_0004                  44.545853               0 d_pat                      ;
 node_0005                  39.001898        0.026921 d_pat                      ;
 node_0006                      39.51        0.042364 d_pat                      ;
 node_0007                  42.604299               0 d_pat                      ;
 node_0008                  47.437245               0 d_pat                      ;
 node_0009                  18.407785        0.019528 d_pat                      ;
 node_0010                  15.444212               0 d_pat                      ;
 node_0011                  54.171954               0 d_pat                      ;
 node_0012                  46.613206               0 d_pat                      ;
 node_0013                   52.07827               0 d_pat                      ;
 node_0014                  46.822226               0 d_pat                      ;
 node_0015                  51.305197        0.004456 d_pat                      ;
 node_0016                  49.205102        0.015961 d_pat                      ;
 node_0017                  49.954792               0 d_pat                      ;
 node_0018                  51.242215        0.007488 d_pat                      ;
 node_0019                  41.229555        0.033339 d_pat                      ;
 node_0020                  42.638169        0.041171 d_pat                      ;
 node_0021                   42.30857        0.001076 d_pat                      ;
 node_0022                   41.51386        0.022587 d_pat                      ;
 node_0023                  24.862866               0 d_pat                      ;
 node_0024                  15.624059        0.001481 d_pat                      ;
 node_0025                  15.491523               0 d_pat                      ;
 node_0026                  24.845056               0 d_pat                      ;
 node_0027                  24.852542               0 d_pat                      ;
 node_0028                  39.986989               0 d_pat                      ;
 node_0059                  56.470534        0.023049 d_pat                      ;
 node_0064                  54.544316               0 d_pat                      ;
 node_0065                  54.432323               0 d_pat                      ;
 node_0066                   54.45532         0.00787 d_pat                      ;
 node_0067                  54.172261        0.015663 d_pat                      ;
 node_0068                  54.179102               0 d_pat                      ;
 node_0069                  54.206049               0 d_pat                      ;
 node_0070                  54.159509        0.015347 d_pat                      ;
 node_0071                  54.159611               0 d_pat                      ;
 node_0072                  49.880939               0 d_pat                      ;
 node_0073                  44.519714        0.020633 d_pat                      ;
 node_0074                  42.886984        0.016215 d_pat                      ;
 node_0075                  42.405297        0.046938 d_pat                      ;
 node_0076                  44.159507        0.007089 d_pat                      ;
 node_0077                  43.412316        0.033341 d_pat                      ;
 node_0078                  45.139019        0.041426 d_pat                      ;
 node_0079                  42.552615        0.046843 d_pat                      ;
 node_0080                  44.508096        0.003206 d_pat                      ;
 node_0081                  45.180859        0.010633 d_pat                      ;
 node_0082                  45.285168        0.011519 d_pat                      ;
 node_0083                  45.210055        0.003544 d_pat                      ;
 node_0084                  44.911325        0.020318 d_pat                      ;
 node_0085                  45.162553               0 d_pat                      ;
 node_0086                  45.179744        0.014595 d_pat                      ;
 node_0087                  44.334901        0.003544 d_pat                      ;
 node_0088                  44.810154        0.009424 d_pat                      ;
 node_0089                  44.406762        0.009875 d_pat                      ;
 node_0090                  42.896425               0 d_pat                      ;
 node_0091                  43.507262          0.0014 d_pat                      ;
 node_0119                  56.733339        0.020674 d_pat                      ;
 node_0120                  60.282231        0.031409 d_pat                      ;
 node_0121                  60.099755        0.006539 d_pat                      ;
 node_0122                  57.394396        0.009332 d_pat                      ;
 node_0123                  58.254639        0.006817 d_pat                      ;
 node_0124                  58.824272         0.03976 d_pat                      ;
 node_0125                  59.833311        0.099048 d_pat                      ;
 node_0126                  63.760215               0 d_pat                      ;
 node_0132                  54.609864        0.017268 d_pat                      ;
 node_0133                  54.957472               0 d_pat                      ;
 node_0134                  60.460504        0.026007 d_pat                      ;
 node_0135                  57.335776         0.05484 d_pat                      ;
 node_0136                  55.701527        0.063242 d_pat                      ;
 node_0137                  59.991981        0.042245 d_pat                      ;
 node_0138                  59.535368        0.020275 d_pat                      ;
 node_0139                  59.634023        0.002014 d_pat                      ;
 node_0140                  60.998275        0.013649 d_pat                      ;
 node_0141                  60.908467        0.012804 d_pat                      ;
 node_0142                  60.579501               0 d_pat                      ;
 node_0143                  56.991076        0.013573 d_pat                      ;
 node_0144                  56.965719               0 d_pat                      ;
 node_0145                  52.536542               0 d_pat                      ;
 node_0146                  52.680429        0.002361 d_pat                      ;
 node_0147                  52.468161        0.026782 d_pat                      ;
 node_0148                  45.958939        0.000741 d_pat                      ;
 node_0149                  46.739813               0 d_pat                      ;
 node_0150                  43.380909        0.003544 d_pat                      ;
 node_0151                  45.500229        0.020897 d_pat                      ;
 node_0152                  44.809588        0.014485 d_pat                      ;
 node_0153                  46.048533        0.007271 d_pat                      ;
 node_0154                  45.229945          0.0006 d_pat                      ;
 node_0155                  47.419518               0 d_pat                      ;
 node_0182                  53.731072        0.043926 d_pat                      ;
 node_0183                  56.277871               0 d_pat                      ;
 node_0184                  57.025992        0.020732 d_pat                      ;
 node_0185                  56.279682        0.005208 d_pat                      ;
 node_0186                  60.912646        0.001528 d_pat                      ;
 node_0187                  62.121944        0.049666 d_pat                      ;
 node_0188                  54.403447        0.007512 d_pat                      ;
 node_0230                  41.660344        0.008507 d_pat                      ;
 node_0231                  46.462348         0.01669 d_pat                      ;
 node_0241                  54.150875        0.033021 d_pat                      ;
 node_0242                  54.134238        0.033021 d_pat                      ;
 node_0243                  45.346466               0 d_pat                      ;
 node_0244                  44.455416        0.161768 d_pat                      ;
 node_0252                  57.831969         0.01476 d_pat                      ;
 node_0253                  61.248613        0.062743 d_pat                      ;
 node_0254                  60.520629        0.073676 d_pat                      ;
 node_0255                      57.36        0.047499 d_pat                      ;
 node_0256                  61.390359        0.068017 d_pat                      ;
 node_0287                  42.259709        0.004144 d_pat                      ;
 node_0288                      44.11        0.005119 d_pat                      ;
 node_0289                  36.262616               0 d_pat                      ;
 node_0290                  41.771256        0.021267 d_pat                      ;
 node_0296                  42.249713               0 d_pat                      ;
 node_0297                   24.94329               0 d_pat                      ;
 node_0298                  24.913064               0 d_pat                      ;
 node_0299                  24.878676               0 d_pat                      ;
 node_0300                  24.870931               0 d_pat                      ;
 node_0303                  54.432578               0 d_pat                      ;
 node_0304                  54.519856        0.001146 d_pat                      ;
 node_0305                  54.485301               0 d_pat                      ;
 node_0306                   55.14112        0.000567 d_pat                      ;
 node_0310                  47.168446               0 d_pat                      ;
 node_0312                  42.718187        0.035885 d_pat                      ;
 node_0324                   49.88862        0.002326 d_pat                      ;
 node_0326                   54.08127               0 d_pat                      ;
 node_0327                  24.833353               0 d_pat                      ;
 node_0328                  24.906652        0.008559 d_pat                      ;
 node_0329                  46.463472        0.026921 d_pat                      ;
 node_0339                  53.434956        0.011586 d_pat                      ;
 node_0340                  55.664594        0.004074 d_pat                      ;
 node_0341                    55.4205               0 d_pat                      ;
 node_0358                  15.484285               0 d_pat                      ;
 node_0365                  15.069807               0 d_pat                      ;
 node_0366                  15.219566               0 d_pat                      ;
 node_0367                   15.45764               0 d_pat                      ;
 node_0375                  44.545881        0.019065 d_pat                      ;
 node_0376                  55.810254               0 d_pat                      ;
 node_0410                  59.867804        0.055639 d_pat                      ;
 node_0417                  54.558259        0.012804 d_pat                      ;
 node_0418                  60.283478        0.005188 d_pat                      ;
 node_0419                  60.484849        0.028096 d_pat                      ;
 node_0420                  60.519551               0 d_pat                      ;
 node_0421                  62.752107        0.015906 d_pat                      ;
 node_0422                   59.77467        0.026837 d_pat                      ;
 node_0423                  56.052434        0.048148 d_pat                      ;
 node_0424                  60.283639               0 d_pat                      ;
 node_0425                  60.296494               0 d_pat                      ;
 node_0426                  59.311625        0.019618 d_pat                      ;
 node_0427                  59.740233        0.008301 d_pat                      ;
 node_0429                      61.92        0.057777 d_pat                      ;
 node_0430                  62.520893        0.035575 d_pat                      ;
 node_0431                  63.090593        0.040984 d_pat                      ;
 node_0432                  60.166913        0.027951 d_pat                      ;
 node_0433                  62.412439               0 d_pat                      ;
 node_0436                     57.635               0 d_pat                      ;
 node_0439                  61.039128        0.005246 d_pat                      ;
 node_0449                  62.411918        0.015078 d_pat                      ;
 node_0450                  57.078703               0 d_pat                      ;
 node_0451                  57.210604         0.00515 d_pat                      ;
 node_0456                      44.11        0.053127 d_pat                      ;
 node_0458                  63.732725               0 d_pat                      ;
 node_0461                  60.059186        0.004957 d_pat                      ;
 node_0467                  34.914163               0 d_pat                      ;
 node_0468                  24.928127               0 d_pat                      ;
 node_0471                  53.757905               0 d_pat                      ;
 node_0472                  57.887154        0.006192 d_pat                      ;
 node_0473                  57.879233        0.007089 d_pat                      ;
 node_0475                  55.394295               0 d_pat                      ;
 node_0480                  42.390765        0.035445 d_pat                      ;
 node_0481                  53.701043               0 d_pat                      ;
 node_0484                  59.329312        0.005069 d_pat                      ;
 node_0485                   59.09704               0 d_pat                      ;
 node_0493                  43.675023        0.007089 d_pat                      ;
 node_0494                  42.625671        0.001887 d_pat                      ;
 node_0495                  42.715353        0.001389 d_pat                      ;
 node_0496                    42.4585        0.033469 d_pat                      ;
 node_0498                  44.628517        0.050417 d_pat                      ;
 node_0499                  41.436343               0 d_pat                      ;
 node_0500                  58.415716        0.000544 d_pat                      ;
 node_0501                  56.277743        0.019569 d_pat                      ;
 node_0502                   55.02097        0.003032 d_pat                      ;
 node_0503                  57.644162        0.042682 d_pat                      ;
 node_0504                  60.912556               0 d_pat                      ;
 node_0505                  64.249413               0 d_pat                      ;
 node_0506                  61.255764        0.013142 d_pat                      ;
 node_0507                   60.46334        0.012751 d_pat                      ;
 node_0508                  56.777479        0.009519 d_pat                      ;
 node_0509                  57.318545        0.024878 d_pat                      ;
 node_0510                  59.994479        0.056736 d_pat                      ;
 node_0511                   60.17514        0.026383 d_pat                      ;
 node_0512                  61.351965        0.021076 d_pat                      ;
 node_0513                  58.202588               0 d_pat                      ;
 node_0514                  55.179346        0.030868 d_pat                      ;
 node_0515                  53.707006        0.015654 d_pat                      ;
 node_0516                  54.956427               0 d_pat                      ;
 node_0517                  56.970424        0.007975 d_pat                      ;
 node_0518                  36.159893        0.022884 d_pat                      ;
 node_0519                  36.959336        0.034328 d_pat                      ;
 node_0520                  50.108801        0.006968 d_pat                      ;
 node_0521                  52.143224         0.01537 d_pat                      ;
 node_0522                  51.450006        0.007616 d_pat                      ;
 node_0523                  45.443119         0.00978 d_pat                      ;
 node_0524                  44.628887        0.016151 d_pat                      ;
 node_0525                  43.321575        0.011053 d_pat                      ;
 node_0526                  43.626649        0.023457 d_pat                      ;
 node_0527                  44.813161               0 d_pat                      ;
 node_0528                  47.414228               0 d_pat                      ;
 node_0529                  46.405996               0 d_pat                      ;
 node_0530                  47.027663               0 d_pat                      ;
 node_0531                  47.207401               0 d_pat                      ;
 node_0532                  45.618231               0 d_pat                      ;
 node_0533                  50.016653               0 d_pat                      ;
 node_0534                  49.704139        0.002789 d_pat                      ;
 node_0535                  50.158975        0.009248 d_pat                      ;
 node_0536                  24.836696               0 d_pat                      ;
 node_0537                  20.413496        0.009274 d_pat                      ;
 node_0538                  15.638528        0.005741 d_pat                      ;
 node_0539                  22.538501        0.007433 d_pat                      ;
 node_0540                  55.111792        0.004201 d_pat                      ;
 node_0541                  54.542841               0 d_pat                      ;
 node_0542                  54.505762               0 d_pat                      ;
 node_0543                      54.11               0 d_pat                      ;
 node_0544                  15.498585        0.003544 d_pat                      ;
 node_0545                   15.13276               0 d_pat                      ;
 node_0546                  54.716855        0.003692 d_pat                      ;
 node_0548                  41.641251        0.018695 d_pat                      ;
 node_0549                  43.427001        0.024198 d_pat                      ;
 node_0550                  45.216455        0.060769 d_pat                      ;
 node_0551                  45.169881         0.00697 d_pat                      ;
 node_0552                   45.75413               0 d_pat                      ;
 node_0553                  45.767708         0.00645 d_pat                      ;
 node_0554                  43.891926               0 d_pat                      ;
 node_0555                  45.956823        0.002581 d_pat                      ;
 node_0556                  42.337145        0.022101 d_pat                      ;
 node_0557                    43.1317        0.002616 d_pat                      ;
 node_0558                  45.991873        0.003544 d_pat                      ;
 node_0559                   41.06863               0 d_pat                      ;
 node_0560                   42.81616        0.017184 d_pat                      ;
 node_0587                  56.441234         0.01919 d_pat                      ;
 node_0588                  60.720427        0.025086 d_pat                      ;
 node_0656                  56.852417        0.018137 d_pat                      ;
 node_0657                  57.880439               0 d_pat                      ;
 node_0658                  56.311723        0.010917 d_pat                      ;
 node_0659                  52.603975        0.023032 d_pat                      ;
 node_0660                   52.23705               0 d_pat                      ;
 node_0661                   55.33459               0 d_pat                      ;
 node_0662                  51.868562         0.00809 d_pat                      ;
 node_0663                  52.488048        0.002593 d_pat                      ;
 node_0664                  52.241431               0 d_pat                      ;
 node_0665                   52.50187         0.00522 d_pat                      ;
 node_0666                  56.874056         0.04578 d_pat                      ;
 node_0667                  54.636179        0.010023 d_pat                      ;
 node_0684                  57.873024        0.010388 d_pat                      ;
 node_0685                  54.600495        0.014919 d_pat                      ;
 node_0687                  54.040125               0 d_pat                      ;
 node_0689                  57.888278               0 d_pat                      ;
 node_0690                  56.281386        0.025868 d_pat                      ;
 node_0691                  56.389712        0.018032 d_pat                      ;
 node_0692                  50.506686        0.023657 d_pat                      ;
 node_0697                   54.43486               0 d_pat                      ;
 node_0702                  41.383704               0 d_pat                      ;
 node_0707                  54.038609        0.029051 d_pat                      ;
 node_0709                  18.527837        0.019178 d_pat                      ;
 node_0711                   53.66756               0 d_pat                      ;
 node_0712                  54.510244        0.007089 d_pat                      ;
 node_0713                  53.749025               0 d_pat                      ;
 node_0714                  54.223321               0 d_pat                      ;
 node_0715                  54.213819               0 d_pat                      ;
 node_0724                  56.993252        0.057292 d_pat                      ;
 node_0725                  57.209884               0 d_pat                      ;
 node_0726                  54.599166        0.007089 d_pat                      ;
 node_0727                  55.363185        0.007089 d_pat                      ;
 node_0732                   56.30295        0.003333 d_pat                      ;
 node_0733                  57.205262               0 d_pat                      ;
 node_0734                  57.211121               0 d_pat                      ;
 node_0735                  56.543599        0.021267 d_pat                      ;
 node_0736                  54.599083               0 d_pat                      ;
 node_0737                  54.082979               0 d_pat                      ;
 node_0738                  56.299478        0.003544 d_pat                      ;
 node_0740                  56.693184               0 d_pat                      ;
 node_0741                  55.149849               0 d_pat                      ;
 node_0780                      36.16               0 d_pat                      ;
 node_0781                      36.16        0.016559 d_pat                      ;
 node_0782                      37.21        0.042207 d_pat                      ;
 node_0783                      37.21        0.011238 d_pat                      ;
 node_0786                      41.64               0 d_pat                      ;
 node_0787                      41.64               0 d_pat                      ;
 node_0788                      41.75               0 d_pat                      ;
 node_0789                      41.75        0.011947 d_pat                      ;
 node_0790                      43.68        0.023996 d_pat                      ;
 node_0791                      43.68        0.006493 d_pat                      ;
 node_0792                       44.7        0.005822 d_pat                      ;
 node_0793                       44.7               0 d_pat                      ;
 node_0794                      36.96               0 d_pat                      ;
 node_0795                      36.96               0 d_pat                      ;
 node_0796                      45.64               0 d_pat                      ;
 node_0797                      45.64               0 d_pat                      ;
 node_0798                      45.48               0 d_pat                      ;
 node_0799                      45.48        0.021765 d_pat                      ;
 node_0800                      41.64               0 d_pat                      ;
 node_0801                      41.64        0.126098 d_pat                      ;
 node_0802                      50.16               0 d_pat                      ;
 node_0803                      50.16        0.010671 d_pat                      ;
 node_0804                      50.11               0 d_pat                      ;
 node_0805                      50.11        0.014606 d_pat                      ;
 node_0806                      51.24               0 d_pat                      ;
 node_0807                      51.24        0.005926 d_pat                      ;
 node_0808                      52.17               0 d_pat                      ;
 node_0809                      52.17        0.006273 d_pat                      ;
 node_0810                      43.26               0 d_pat                      ;
 node_0811                      43.26               0 d_pat                      ;
 node_0812                      43.35        0.050688 d_pat                      ;
 node_0813                      43.35        0.003544 d_pat                      ;
 node_0814                      44.43               0 d_pat                      ;
 node_0815                      44.43               0 d_pat                      ;
 node_0816                      44.87               0 d_pat                      ;
 node_0817                      44.87               0 d_pat                      ;
 node_0818                      43.58               0 d_pat                      ;
 node_0819                      43.58               0 d_pat                      ;
 node_0820                      44.73               0 d_pat                      ;
 node_0821                      44.73               0 d_pat                      ;
 node_0822                       47.2               0 d_pat                      ;
 node_0823                       47.2               0 d_pat                      ;
 node_0824                      47.43               0 d_pat                      ;
 node_0825                      47.43               0 d_pat                      ;
 node_0826                      38.86               0 d_pat                      ;
 node_0827                      38.86               0 d_pat                      ;
 node_0828                      39.03               0 d_pat                      ;
 node_0829                      39.03               0 d_pat                      ;
 node_0830                       14.8               0 d_pat                      ;
 node_0831                       14.8               0 d_pat                      ;
 node_0832                      15.27        0.011672 d_pat                      ;
 node_0833                      15.27               0 d_pat                      ;
 node_0834                      18.51               0 d_pat                      ;
 node_0835                      18.51               0 d_pat                      ;
 node_0836                      15.17               0 d_pat                      ;
 node_0837                      15.17               0 d_pat                      ;
 node_0838                      15.39               0 d_pat                      ;
 node_0839                      15.39               0 d_pat                      ;
 node_0840                      15.45               0 d_pat                      ;
 node_0841                      15.45               0 d_pat                      ;
 node_0842                      15.63               0 d_pat                      ;
 node_0843                      15.63               0 d_pat                      ;
 node_0844                      28.09               0 d_pat                      ;
 node_0845                      28.09               0 d_pat                      ;
 node_0846                      46.64               0 d_pat                      ;
 node_0847                      46.64               0 d_pat                      ;
 node_0848                      46.82        0.011516 d_pat                      ;
 node_0849                      46.82               0 d_pat                      ;
 node_0850                      47.06               0 d_pat                      ;
 node_0851                      47.06        0.002188 d_pat                      ;
 node_0852                      45.62               0 d_pat                      ;
 node_0853                      45.62        0.004491 d_pat                      ;
 node_0854                      44.04               0 d_pat                      ;
 node_0855                      44.04        0.011725 d_pat                      ;
 node_0856                      52.08               0 d_pat                      ;
 node_0857                      52.08               0 d_pat                      ;
 node_0858                       49.2               0 d_pat                      ;
 node_0859                       49.2               0 d_pat                      ;
 node_0860                      49.96        0.028125 d_pat                      ;