; Filename: /home/bradw/workspace/CIVE_70019_70057/notebooks/../data/networks/pescara.inp
; WNTR: 1.0.0
; Created: 2023-06-19 16:19:22
[TITLE]
pescara -- Bragalli, D'Ambrosio, Lee, Lodi, Toth (2008)

[JUNCTIONS]
;ID                      Elevation       Demand Pattern                 
 1                                2.9        3.336667 1                          ;
 2                                  5        4.143333 1                          ;
 3                                3.5        2.833333 1                          ;
 4                                3.8        2.833333 1                          ;
 5                                2.2            4.04 1                          ;
 6                                  7        0.543333 1                          ;
 8                                5.2            11.2 1                          ;
 9                                4.3            1.46 1                          ;
 10                               5.2        5.466667 1                          ;
 11                                28        9.923333 1                          ;
 12                               3.2        0.163333 1                          ;
 13                               3.2        2.496667 1                          ;
 14                              19.2            2.02 1                          ;
 17                                 4        0.923333 1                          ;
 18                               3.5        1.676667 1                          ;
 19                               2.8        1.603333 1                          ;
 20                               2.7        7.013334 1                          ;
 21                               1.8        5.646667 1                          ;
 22                               2.1            3.47 1                          ;
 23                                 2        0.723333 1                          ;
 24                              18.7        2.183333 1                          ;
 25                               3.2            3.47 1                          ;
 26                               1.6        0.926667 1                          ;
 27                               3.8        1.773333 1                          ;
 28                               4.3            1.21 1                          ;
 29                               3.6              11 1                          ;
 30                               3.2               2 1                          ;
 31                               2.8        2.133333 1                          ;
 32                               1.8        0.986667 1                          ;
 33                               3.8            1.03 1                          ;
 34                               2.9            1.03 1                          ;
 35                               3.7            2.93 1                          ;
 36                               2.1            0.56 1                          ;
 37                               6.7        4.213334 1                          ;
 38                               6.7        4.213334 1                          ;
 39                               4.2        4.213334 1                          ;
 40                               2.9        1.853333 1                          ;
 41                               2.9        0.866667 1                          ;
 42                              28.5        1.523333 1                          ;
 44                              27.3            2.52 1                          ;
 45                               1.1            2.07 1                          ;
 46                               2.5            1.03 1                          ;
 47                               2.8        0.196667 1                          ;
 48                               3.3            4.21 1                          ;
 49                               1.8        1.136667 1                          ;
 50                               1.8        4.403333 1                          ;
 51                               1.6            1.29 1                          ;
 52                               1.8        2.143333 1                          ;
 53                               1.6            0.85 1                          ;
 54                               3.3               0 1                          ;
 55                               2.5        3.766667 1                          ;
 56                               2.8            1.33 1                          ;
 57                               3.2        2.583333 1                          ;
 58                               3.6        0.636667 1                          ;
 59                               3.8        0.293333 1                          ;
 60                               3.1        1.713333 1                          ;
 61                                 3        1.713333 1                          ;
 62                               4.2            2.48 1                          ;
 76                               4.2               0 1                          ;
 82                               2.1        0.003333 1                          ;
 83                               2.1               0 1                          ;
 84                               3.3            0.18 1                          ;
 85                               2.1        0.123333 1                          ;
 86                               1.5        2.153333 1                          ;
 87                              19.2        8.333333 1                          ;
 88                               2.1        0.716667 1                          ;
 89                               1.5        0.583333 1                          ;

[RESERVOIRS]
;ID                                   Head                  Pattern
 15                                57                            ;
 43                             53.08                            ;
 65                                55                            ;

[TANKS]
;ID                              Elevation           Init Level            Min Level            Max Level             Diameter           Min Volume Volume Curve         Overflow            

[PIPES]
;ID                   Node1                Node2                              Length             Diameter            Roughness           Minor Loss               Status
 1                    1                    2                             977.36             100              98               0                 Open   ;
 2                    3                    4                             443.17             150             115               0                 Open   ;
 3                    3                    5                            1410.77             100              62               0                 Open   ;
 4                    3                    1                             269.61             125             102               0                 Open   ;
 6                    6                    8                             203.06             100              95               0                 Open   ;
 7                    9                    6                            2309.14             100              74               0                 Open   ;
 8                    10                   11                           1479.98             150              85               0                 Open   ;
 11                   15                   14                             43.97             350              95               0                 Open   ;
 12                   13                   17                            589.16             200             138               0                 Open   ;
 13                   18                   13                            618.53             200             127               0                 Open   ;
 14                   18                   19                             341.1             200              73               0                 Open   ;
 15                   20                   18                            341.92             100             130               0                 Open   ;
 16                   21                   20                            434.24             100             100               0                 Open   ;
 17                   22                   23                            240.59             100              90               0                 Open   ;
 18                   24                   25                            957.44             200             100               0                 Open   ;
 19                   14                   24                            171.04             350              88               0                 Open   ;
 20                   24                   17                            235.57             300              89               0                 Open   ;
 21                   26                   17                              3.59             200             110               0                 Open   ;
 22                   26                   27                            324.36             200             109               0                 Open   ;
 24                   21                   22                            749.74             100             109               0                 Open   ;
 25                   23                   21                             639.7             100             100               0                 Open   ;
 26                   27                   23                            422.95             100              75               0                 Open   ;
 27                   20                   27                            843.52             125             100               0                 Open   ;
 28                   19                   20                            609.23             100             112               0                 Open   ;
 29                   28                   29                            179.04             150              97               0                 Open   ;
 30                   28                   30                             570.9             100             104               0                 Open   ;
 31                   30                   28                            575.73             100             100               0                 Open   ;
 32                   31                   32                            250.28             100              87               0                 Open   ;
 33                   30                   33                            442.11             100              95               0                 Open   ;
 34                   34                   30                            762.35             100              81               0                 Open   ;
 35                   35                   36                            1124.9             100             103               0                 Open   ;
 36                   31                   11                           1903.75             100              76               0                 Open   ;
 37                   37                   31                            125.51             125              77               0                 Open   ;
 38                   37                   38                            121.27             200              80               0                 Open   ;
 39                   19                   38                             55.32             200              53               0                 Open   ;
 41                   40                   39                            424.86             100             110               0                 Open   ;
 42                   40                   41                              72.8             100              95               0                 Open   ;
 43                   9                    40                            554.08             100              81               0                 Open   ;
 44                   33                   9                             305.53             100             109               0                 Open   ;
 45                   41                   33                            568.35             100              69               0                 Open   ;
 46                   34                   41                             63.81             100              90               0                 Open   ;
 47                   39                   34                            310.76             100              88               0                 Open   ;
 48                   12                   39                           1217.17             200              95               0                 Open   ;
 49                   25                   12                            365.82             150              95               0                 Open   ;
 50                   35                   25                           1408.33             100              80               0                 Open   ;
 51                   29                   35                             33.25             100              91               0                 Open   ;
 52                   8                    29                             720.9             200              89               0                 Open   ;
 53                   42                   11                            441.69             250              99               0                 Open   ;
 54                   43                   42                            332.99             400             105               0                 Open   ;
 55                   44                   42                            229.85             350             105               0                 Open   ;
 56                   45                   46                            500.92             100              80               0                 Open   ;
 57                   47                   48                            232.07             250              92               0                 Open   ;
 58                   32                   49                              5.43             100              75               0                 Open   ;
 59                   46                   32                             66.24             100              77               0                 Open   ;
 60                   50                   46                            232.13             100              91               0                 Open   ;
 61                   49                   50                            154.78             100             111               0                 Open   ;
 62                   48                   49                             645.1             100              81               0                 Open   ;
 63                   51                   48                            157.87             200              96               0                 Open   ;
 64                   50                   51                            645.79             100              88               0                 Open   ;
 65                   52                   50                            206.69             100             106               0                 Open   ;
 66                   51                   53                            156.75             150              77               0                 Open   ;
 68                   54                   55                            152.81             100              91               0                 Open   ;
 70                   56                   47                             52.37             250              98               0                 Open   ;
 71                   44                   57                            394.67             300             105               0                 Open   ;
 72                   56                   44                            774.69             100             111               0                 Open   ;
 73                   57                   56                            435.58             200              92               0                 Open   ;
 74                   58                   57                            899.67             250              72               0                 Open   ;
 75                   59                   60                             198.5             125              81               0                 Open   ;
 76                   55                   61                           1116.15             100              77               0                 Open   ;
 78                   52                   53                             631.8             100             122               0                 Open   ;
 79                   45                   52                            350.97             100              83               0                 Open   ;
 81                   61                   5                             226.03             125             101               0                 Open   ;
 82                   60                   61                            186.77             100              88               0                 Open   ;
 83                   58                   60                            337.24             100             103               0                 Open   ;
 84                   62                   58                            173.09             250              81               0                 Open   ;
 85                   62                   2                             784.45             100              73               0                 Open   ;
 86                   59                   62                             86.39             200              73               0                 Open   ;
 87                   4                    59                            732.93             200              97               0                 Open   ;
 88                   2                    4                             193.78             100              89               0                 Open   ;
 89                   65                   6                            1744.27             100              88               0                 Open   ;
 90                   65                   76                            154.18             250             109               0                 Open   ;
 92                   86                   45                           1635.69             100              95               0                 Open   ;
 93                   76                   8                            1072.69             250              94               0                 Open   ;
 94                   82                   83                                 5             100             112               0                 Open   ;
 95                   82                   85                            240.05             100              81               0                 Open   ;
 96                   22                   85                            841.63             100             100               0                 Open   ;
 97                   26                   83                            601.58             100             102               0                 Open   ;
 98                   5                    86                              1600             100              88               0                 Open   ;
 100                  54                   84                               180             100              94               0                 Open   ;
 102                  83                   85                               240             100              76               0                 Open   ;
 103                  43                   87                                10             150              76               0                 Open   ;
 104                  55                   89                            179.54             100              92               0                 Open   ;
 105                  89                   53                             331.4             100             100               0                 Open   ;
 106                  55                   88                            332.35             100             125               0                 Open   ;
 107                  88                   51                            325.03             100              82               0                 Open   ;
 108                  84                   88                            113.35             100              93               0                 Open   ;
 109                  88                   89                            150.82             100              90               0                 Open   ;
 110                  55                   86                            165.43             100              66               0                 Open   ;

[PUMPS]
;ID                   Node1                Node2                Properties          

[VALVES]
;ID                   Node1                Node2                            Diameter Type              Setting           Minor Loss

[TAGS]
;type      name       tag       

[DEMANDS]
;ID        Demand     Pattern   

[STATUS]
;ID        Setting   

[PATTERNS]
;ID        Multipliers

1 0.410000 0.410000 0.210000 0.210000 0.210000 0.210000
1 0.610000 0.610000 1.030000 1.030000 0.930000 0.930000
1 0.720000 0.720000 0.720000 0.720000 0.830000 0.830000
1 0.720000 0.720000 0.620000 0.410000 0.410000 0.410000

[CURVES]
;ID         X-Value      Y-Value     

[CONTROLS]

[RULES]

[ENERGY]
GLOBAL EFFICIENCY      75.0000
GLOBAL PRICE           0.0000
DEMAND CHARGE          0.0000

[EMITTERS]
;ID        Flow coefficient

[QUALITY]

[SOURCES]
;Node      Type       Quality    Pattern   

[REACTIONS]
;Type           Pipe/Tank               Coefficient

 ORDER BULK 1
 ORDER TANK 1
 ORDER WALL 1
 GLOBAL BULK 0.0000    
 GLOBAL WALL 0.0000    
 LIMITING POTENTIAL 0.0000    
 ROUGHNESS CORRELATION 0.0000    

[MIXING]
;Tank ID             Model Fraction

[TIMES]
DURATION             24:00:00
HYDRAULIC TIMESTEP   01:00:00
QUALITY TIMESTEP     00:05:00
PATTERN TIMESTEP     01:00:00
PATTERN START        00:00:00
REPORT TIMESTEP      01:00:00
REPORT START         00:00:00
START CLOCKTIME      00:00:00 AM
RULE TIMESTEP        00:06:00
STATISTIC            NONE      

[REPORT]
STATUS     YES
SUMMARY    NO
PAGE       0

[OPTIONS]
UNITS                LPS                 
HEADLOSS             H-W                 
SPECIFIC GRAVITY     1
VISCOSITY            1
TRIALS               40
ACCURACY             0.001
CHECKFREQ            2
MAXCHECK             10
UNBALANCED           CONTINUE 10
PATTERN              1                   
DEMAND MULTIPLIER    1
EMITTER EXPONENT     0.5
QUALITY              NONE                
DIFFUSIVITY          1
TOLERANCE            0.01

[COORDINATES]
;Node      X-Coord    Y-Coord   
1              656582.880000000     963296.250000000
2              657289.060000000     963069.500000000
3              656852.190000000     963283.190000000
4              657294.630000000     963262.250000000
5              657933.440000000     963588.940000000
6              661346.750000000     960658.380000000
8              661547.630000000     960688.130000000
9              660262.190000000     961842.690000000
10             659947.690000000     961952.630000000
11             659120.750000000     962107.190000000
12             661689.690000000     962215.250000000
13             661623.880000000     962717.690000000
14             662482.810000000     962917.750000000
17             662131.880000000     963005.560000000
18             661006.880000000     962760.810000000
19             660673.440000000     962792.060000000
20             661012.000000000     963102.440000000
21             661221.060000000     963474.690000000
22             661856.940000000     963711.130000000
23             661860.750000000     963473.880000000
24             662326.000000000     962957.190000000
25             662031.810000000     962086.690000000
26             662135.060000000     963007.190000000
27             661853.690000000     963051.000000000
28             661141.500000000     961352.250000000
29             661319.630000000     961368.810000000
30             660878.690000000     961712.130000000
31             660390.130000000     962876.630000000
32             660381.190000000     963121.000000000
33             660557.310000000     961781.060000000
34             660596.630000000     962340.810000000
35             661308.000000000     961400.000000000
36             660857.630000000     962345.560000000
37             660500.440000000     962822.940000000
38             660618.310000000     962796.500000000
39             660651.250000000     962646.690000000
40             660461.310000000     962359.190000000
41             660533.310000000     962348.810000000
42             659046.310000000     962535.190000000
44             659015.000000000     962761.750000000
45             660704.560000000     963432.500000000
46             660447.380000000     963119.130000000
47             659504.060000000     963179.190000000
48             659732.880000000     963154.940000000
49             660377.060000000     963121.750000000
50             660375.880000000     963276.440000000
51             659734.190000000     963310.880000000
52             660371.380000000     963483.060000000
53             659739.940000000     963467.500000000
54             659230.130000000     963333.940000000
55             659229.190000000     963481.630000000
56             659457.440000000     963155.310000000
57             659097.250000000     963096.190000000
58             658198.440000000     963134.440000000
59             658026.940000000     963233.880000000
60             658114.750000000     963350.060000000
61             658119.750000000     963536.750000000
62             658025.810000000     963147.500000000
76             662523.130000000     960626.310000000
82             662454.000000000     963567.130000000
83             662458.630000000     963565.250000000
84             659408.690000000     963212.440000000
85             662548.060000000     963787.940000000
86             659408.690000000     963642.060000000
87             658728.690000000     962454.750000000
88             659408.690000000     963325.810000000
89             659408.690000000     963476.630000000
15             662492.560000000     962874.810000000
43             658738.690000000     962454.750000000
65             662568.190000000     960492.440000000

[VERTICES]
;Link      X-Coord    Y-Coord   

[LABELS]

[BACKDROP]
DIMENSIONS    656280.19    960321.30    662939.25    963953.02
UNITS    NONE
OFFSET    0.00    0.00

[END]
